                                  MODFLOW-2005     
      U.S. GEOLOGICAL SURVEY MODULAR FINITE-DIFFERENCE GROUND-WATER FLOW MODEL
                            VERSION 1.12.00 2/3/2017

 LIST FILE: case2.out
                         UNIT    1

 OPENING case2.hed
 FILE TYPE:DATA(BINARY)   UNIT    2   STATUS:UNKNOWN
 FORMAT:BINARY                 ACCESS:SEQUENTIAL          

 OPENING case2.drw
 FILE TYPE:DATA(BINARY)   UNIT   13   STATUS:UNKNOWN
 FORMAT:BINARY                 ACCESS:SEQUENTIAL          

 OPENING case2.ccf
 FILE TYPE:DATA(BINARY)   UNIT   40   STATUS:UNKNOWN
 FORMAT:BINARY                 ACCESS:SEQUENTIAL          

 OPENING case2.lmt6
 FILE TYPE:LMT6   UNIT    3   STATUS:OLD    
 FORMAT:FORMATTED              ACCESS:SEQUENTIAL          

 OPENING case2.dis
 FILE TYPE:DIS   UNIT    4   STATUS:OLD    
 FORMAT:FORMATTED              ACCESS:SEQUENTIAL          

 OPENING case2.ba6
 FILE TYPE:BAS6   UNIT    7   STATUS:OLD    
 FORMAT:FORMATTED              ACCESS:SEQUENTIAL          

 OPENING case2.lpf
 FILE TYPE:LPF   UNIT    8   STATUS:OLD    
 FORMAT:FORMATTED              ACCESS:SEQUENTIAL          

 OPENING case2.oc
 FILE TYPE:OC   UNIT    9   STATUS:OLD    
 FORMAT:FORMATTED              ACCESS:SEQUENTIAL          

 OPENING case2.drn
 FILE TYPE:DRN   UNIT   10   STATUS:OLD    
 FORMAT:FORMATTED              ACCESS:SEQUENTIAL          

 OPENING case2.ghb
 FILE TYPE:GHB   UNIT   11   STATUS:OLD    
 FORMAT:FORMATTED              ACCESS:SEQUENTIAL          

 OPENING case2.pcg
 FILE TYPE:PCG   UNIT   12   STATUS:OLD    
 FORMAT:FORMATTED              ACCESS:SEQUENTIAL          

 BAS -- BASIC PACKAGE, VERSION 7, 5/2/2005 INPUT READ FROM UNIT    7
 
 MODFLOW was compiled using uniform precision
 Precision of REAL and DOUBLE PRECISION variables:          15

 DISCRETIZATION INPUT DATA READ FROM UNIT    4
 # MF2K DISCRETIZATION FILE
 #
 #
 # NLAY NROW NCOL NPER TIMEUNITS LENUNITS
   40 LAYERS         1 ROWS       100 COLUMNS
    3 STRESS PERIOD(S) IN SIMULATION
 MODEL TIME UNIT IS DAYS
 MODEL LENGTH UNIT IS METERS
  Confining bed flag for each layer:
   0   0   0   0   0   0   0   0   0   0   0   0   0   0   0   0   0   0   0   0
   0   0   0   0   0   0   0   0   0   0   0   0   0   0   0   0   0   0   0   0

                     DELR =   1.00000    

                     DELC =   1.00000    

 TOP ELEVATION OF LAYER 1 =   40.0000    



             MODEL LAYER BOTTOM EL. FOR LAYER   1
 READING ON UNIT    4 WITH FORMAT: (FREE)              

   MODEL LAYER BOTTOM EL. =   38.0000     FOR LAYER   2



             MODEL LAYER BOTTOM EL. FOR LAYER   3
 READING ON UNIT    4 WITH FORMAT: (FREE)              

   MODEL LAYER BOTTOM EL. =   36.0000     FOR LAYER   4



             MODEL LAYER BOTTOM EL. FOR LAYER   5
 READING ON UNIT    4 WITH FORMAT: (FREE)              

   MODEL LAYER BOTTOM EL. =   34.0000     FOR LAYER   6



             MODEL LAYER BOTTOM EL. FOR LAYER   7
 READING ON UNIT    4 WITH FORMAT: (FREE)              

   MODEL LAYER BOTTOM EL. =   32.0000     FOR LAYER   8



             MODEL LAYER BOTTOM EL. FOR LAYER   9
 READING ON UNIT    4 WITH FORMAT: (FREE)              

   MODEL LAYER BOTTOM EL. =   30.0000     FOR LAYER  10



             MODEL LAYER BOTTOM EL. FOR LAYER  11
 READING ON UNIT    4 WITH FORMAT: (FREE)              

   MODEL LAYER BOTTOM EL. =   28.0000     FOR LAYER  12



             MODEL LAYER BOTTOM EL. FOR LAYER  13
 READING ON UNIT    4 WITH FORMAT: (FREE)              

   MODEL LAYER BOTTOM EL. =   26.0000     FOR LAYER  14



             MODEL LAYER BOTTOM EL. FOR LAYER  15
 READING ON UNIT    4 WITH FORMAT: (FREE)              

   MODEL LAYER BOTTOM EL. =   24.0000     FOR LAYER  16



             MODEL LAYER BOTTOM EL. FOR LAYER  17
 READING ON UNIT    4 WITH FORMAT: (FREE)              

   MODEL LAYER BOTTOM EL. =   22.0000     FOR LAYER  18



             MODEL LAYER BOTTOM EL. FOR LAYER  19
 READING ON UNIT    4 WITH FORMAT: (FREE)              

   MODEL LAYER BOTTOM EL. =   20.0000     FOR LAYER  20



             MODEL LAYER BOTTOM EL. FOR LAYER  21
 READING ON UNIT    4 WITH FORMAT: (FREE)              

   MODEL LAYER BOTTOM EL. =   18.0000     FOR LAYER  22



             MODEL LAYER BOTTOM EL. FOR LAYER  23
 READING ON UNIT    4 WITH FORMAT: (FREE)              

   MODEL LAYER BOTTOM EL. =   16.0000     FOR LAYER  24



             MODEL LAYER BOTTOM EL. FOR LAYER  25
 READING ON UNIT    4 WITH FORMAT: (FREE)              

   MODEL LAYER BOTTOM EL. =   14.0000     FOR LAYER  26



             MODEL LAYER BOTTOM EL. FOR LAYER  27
 READING ON UNIT    4 WITH FORMAT: (FREE)              

   MODEL LAYER BOTTOM EL. =   12.0000     FOR LAYER  28



             MODEL LAYER BOTTOM EL. FOR LAYER  29
 READING ON UNIT    4 WITH FORMAT: (FREE)              

   MODEL LAYER BOTTOM EL. =   10.0000     FOR LAYER  30



             MODEL LAYER BOTTOM EL. FOR LAYER  31
 READING ON UNIT    4 WITH FORMAT: (FREE)              

   MODEL LAYER BOTTOM EL. =   8.00000     FOR LAYER  32



             MODEL LAYER BOTTOM EL. FOR LAYER  33
 READING ON UNIT    4 WITH FORMAT: (FREE)              

   MODEL LAYER BOTTOM EL. =   6.00000     FOR LAYER  34



             MODEL LAYER BOTTOM EL. FOR LAYER  35
 READING ON UNIT    4 WITH FORMAT: (FREE)              

   MODEL LAYER BOTTOM EL. =   4.00000     FOR LAYER  36



             MODEL LAYER BOTTOM EL. FOR LAYER  37
 READING ON UNIT    4 WITH FORMAT: (FREE)              

   MODEL LAYER BOTTOM EL. =   2.00000     FOR LAYER  38



             MODEL LAYER BOTTOM EL. FOR LAYER  39
 READING ON UNIT    4 WITH FORMAT: (FREE)              

   MODEL LAYER BOTTOM EL. =   0.00000     FOR LAYER  40


 STRESS PERIOD     LENGTH       TIME STEPS     MULTIPLIER FOR DELT    SS FLAG
 ----------------------------------------------------------------------------
        1         10.00000         10                    1.000         TR
        2         10.00000         10                    1.000         TR
        3         10.00000         10                    1.000         TR

 TRANSIENT SIMULATION



 
 THE FREE FORMAT OPTION HAS BEEN SELECTED



                     BOUNDARY ARRAY FOR LAYER   1
 READING ON UNIT    7 WITH FORMAT: (FREE)              



                     BOUNDARY ARRAY FOR LAYER   2
 READING ON UNIT    7 WITH FORMAT: (FREE)              



                     BOUNDARY ARRAY FOR LAYER   3
 READING ON UNIT    7 WITH FORMAT: (FREE)              



                     BOUNDARY ARRAY FOR LAYER   4
 READING ON UNIT    7 WITH FORMAT: (FREE)              



                     BOUNDARY ARRAY FOR LAYER   5
 READING ON UNIT    7 WITH FORMAT: (FREE)              



                     BOUNDARY ARRAY FOR LAYER   6
 READING ON UNIT    7 WITH FORMAT: (FREE)              



                     BOUNDARY ARRAY FOR LAYER   7
 READING ON UNIT    7 WITH FORMAT: (FREE)              



                     BOUNDARY ARRAY FOR LAYER   8
 READING ON UNIT    7 WITH FORMAT: (FREE)              



                     BOUNDARY ARRAY FOR LAYER   9
 READING ON UNIT    7 WITH FORMAT: (FREE)              



                     BOUNDARY ARRAY FOR LAYER  10
 READING ON UNIT    7 WITH FORMAT: (FREE)              



                     BOUNDARY ARRAY FOR LAYER  11
 READING ON UNIT    7 WITH FORMAT: (FREE)              



                     BOUNDARY ARRAY FOR LAYER  12
 READING ON UNIT    7 WITH FORMAT: (FREE)              



                     BOUNDARY ARRAY FOR LAYER  13
 READING ON UNIT    7 WITH FORMAT: (FREE)              



                     BOUNDARY ARRAY FOR LAYER  14
 READING ON UNIT    7 WITH FORMAT: (FREE)              



                     BOUNDARY ARRAY FOR LAYER  15
 READING ON UNIT    7 WITH FORMAT: (FREE)              



                     BOUNDARY ARRAY FOR LAYER  16
 READING ON UNIT    7 WITH FORMAT: (FREE)              



                     BOUNDARY ARRAY FOR LAYER  17
 READING ON UNIT    7 WITH FORMAT: (FREE)              



                     BOUNDARY ARRAY FOR LAYER  18
 READING ON UNIT    7 WITH FORMAT: (FREE)              



                     BOUNDARY ARRAY FOR LAYER  19
 READING ON UNIT    7 WITH FORMAT: (FREE)              



                     BOUNDARY ARRAY FOR LAYER  20
 READING ON UNIT    7 WITH FORMAT: (FREE)              



                     BOUNDARY ARRAY FOR LAYER  21
 READING ON UNIT    7 WITH FORMAT: (FREE)              



                     BOUNDARY ARRAY FOR LAYER  22
 READING ON UNIT    7 WITH FORMAT: (FREE)              



                     BOUNDARY ARRAY FOR LAYER  23
 READING ON UNIT    7 WITH FORMAT: (FREE)              



                     BOUNDARY ARRAY FOR LAYER  24
 READING ON UNIT    7 WITH FORMAT: (FREE)              



                     BOUNDARY ARRAY FOR LAYER  25
 READING ON UNIT    7 WITH FORMAT: (FREE)              



                     BOUNDARY ARRAY FOR LAYER  26
 READING ON UNIT    7 WITH FORMAT: (FREE)              



                     BOUNDARY ARRAY FOR LAYER  27
 READING ON UNIT    7 WITH FORMAT: (FREE)              



                     BOUNDARY ARRAY FOR LAYER  28
 READING ON UNIT    7 WITH FORMAT: (FREE)              



                     BOUNDARY ARRAY FOR LAYER  29
 READING ON UNIT    7 WITH FORMAT: (FREE)              



                     BOUNDARY ARRAY FOR LAYER  30
 READING ON UNIT    7 WITH FORMAT: (FREE)              



                     BOUNDARY ARRAY FOR LAYER  31
 READING ON UNIT    7 WITH FORMAT: (FREE)              



                     BOUNDARY ARRAY FOR LAYER  32
 READING ON UNIT    7 WITH FORMAT: (FREE)              



                     BOUNDARY ARRAY FOR LAYER  33
 READING ON UNIT    7 WITH FORMAT: (FREE)              



                     BOUNDARY ARRAY FOR LAYER  34
 READING ON UNIT    7 WITH FORMAT: (FREE)              



                     BOUNDARY ARRAY FOR LAYER  35
 READING ON UNIT    7 WITH FORMAT: (FREE)              



                     BOUNDARY ARRAY FOR LAYER  36
 READING ON UNIT    7 WITH FORMAT: (FREE)              



                     BOUNDARY ARRAY FOR LAYER  37
 READING ON UNIT    7 WITH FORMAT: (FREE)              



                     BOUNDARY ARRAY FOR LAYER  38
 READING ON UNIT    7 WITH FORMAT: (FREE)              



                     BOUNDARY ARRAY FOR LAYER  39
 READING ON UNIT    7 WITH FORMAT: (FREE)              

           BOUNDARY ARRAY =              1 FOR LAYER  40

 AQUIFER HEAD WILL BE SET TO  -9999.0     AT ALL NO-FLOW NODES (IBOUND=0).

             INITIAL HEAD =   38.0000     FOR LAYER   1

             INITIAL HEAD =   38.0000     FOR LAYER   2

             INITIAL HEAD =   38.0000     FOR LAYER   3

             INITIAL HEAD =   38.0000     FOR LAYER   4

             INITIAL HEAD =   38.0000     FOR LAYER   5

             INITIAL HEAD =   38.0000     FOR LAYER   6

             INITIAL HEAD =   38.0000     FOR LAYER   7

             INITIAL HEAD =   38.0000     FOR LAYER   8

             INITIAL HEAD =   38.0000     FOR LAYER   9

             INITIAL HEAD =   38.0000     FOR LAYER  10

             INITIAL HEAD =   38.0000     FOR LAYER  11

             INITIAL HEAD =   38.0000     FOR LAYER  12

             INITIAL HEAD =   38.0000     FOR LAYER  13

             INITIAL HEAD =   38.0000     FOR LAYER  14

             INITIAL HEAD =   38.0000     FOR LAYER  15

             INITIAL HEAD =   38.0000     FOR LAYER  16

             INITIAL HEAD =   38.0000     FOR LAYER  17

             INITIAL HEAD =   38.0000     FOR LAYER  18

             INITIAL HEAD =   38.0000     FOR LAYER  19

             INITIAL HEAD =   38.0000     FOR LAYER  20

             INITIAL HEAD =   38.0000     FOR LAYER  21

             INITIAL HEAD =   38.0000     FOR LAYER  22

             INITIAL HEAD =   38.0000     FOR LAYER  23

             INITIAL HEAD =   38.0000     FOR LAYER  24

             INITIAL HEAD =   38.0000     FOR LAYER  25

             INITIAL HEAD =   38.0000     FOR LAYER  26

             INITIAL HEAD =   38.0000     FOR LAYER  27

             INITIAL HEAD =   38.0000     FOR LAYER  28

             INITIAL HEAD =   38.0000     FOR LAYER  29

             INITIAL HEAD =   38.0000     FOR LAYER  30

             INITIAL HEAD =   38.0000     FOR LAYER  31

             INITIAL HEAD =   38.0000     FOR LAYER  32

             INITIAL HEAD =   38.0000     FOR LAYER  33

             INITIAL HEAD =   38.0000     FOR LAYER  34

             INITIAL HEAD =   38.0000     FOR LAYER  35

             INITIAL HEAD =   38.0000     FOR LAYER  36

             INITIAL HEAD =   38.0000     FOR LAYER  37

             INITIAL HEAD =   38.0000     FOR LAYER  38

             INITIAL HEAD =   38.0000     FOR LAYER  39

             INITIAL HEAD =   38.0000     FOR LAYER  40

 OUTPUT CONTROL IS SPECIFIED ONLY AT TIME STEPS FOR WHICH OUTPUT IS DESIRED
 COMPACT CELL-BY-CELL BUDGET FILES WILL BE WRITTEN
 AUXILIARY DATA WILL BE SAVED IN CELL-BY-CELL BUDGET FILES
 HEAD PRINT FORMAT CODE IS   0    DRAWDOWN PRINT FORMAT CODE IS   0
 HEADS WILL BE SAVED ON UNIT    2    DRAWDOWNS WILL BE SAVED ON UNIT   13

 LPF -- LAYER-PROPERTY FLOW PACKAGE, VERSION 7, 5/2/2005
         INPUT READ FROM UNIT    8
 CELL-BY-CELL FLOWS WILL BE SAVED ON UNIT   40
 HEAD AT CELLS THAT CONVERT TO DRY=  -888.00    
 No named parameters

   LAYER FLAGS:
 LAYER       LAYTYP        LAYAVG         CHANI        LAYVKA        LAYWET
 ---------------------------------------------------------------------------
    1             1             0    -1.000E+00             1             1
    2             1             0    -1.000E+00             1             1
    3             1             0    -1.000E+00             1             1
    4             1             0    -1.000E+00             1             1
    5             1             0    -1.000E+00             1             1
    6             1             0    -1.000E+00             1             1
    7             1             0    -1.000E+00             1             1
    8             1             0    -1.000E+00             1             1
    9             1             0    -1.000E+00             1             1
   10             1             0    -1.000E+00             1             1
   11             1             0    -1.000E+00             1             1
   12             1             0    -1.000E+00             1             1
   13             1             0    -1.000E+00             1             1
   14             1             0    -1.000E+00             1             1
   15             1             0    -1.000E+00             1             1
   16             1             0    -1.000E+00             1             1
   17             1             0    -1.000E+00             1             1
   18             1             0    -1.000E+00             1             1
   19             1             0    -1.000E+00             1             1
   20             1             0    -1.000E+00             1             1
   21             1             0    -1.000E+00             1             1
   22             1             0    -1.000E+00             1             1
   23             1             0    -1.000E+00             1             1
   24             1             0    -1.000E+00             1             1
   25             1             0    -1.000E+00             1             1
   26             1             0    -1.000E+00             1             1
   27             1             0    -1.000E+00             1             1
   28             1             0    -1.000E+00             1             1
   29             1             0    -1.000E+00             1             1
   30             1             0    -1.000E+00             1             1
   31             1             0    -1.000E+00             1             1
   32             1             0    -1.000E+00             1             1
   33             1             0    -1.000E+00             1             1
   34             1             0    -1.000E+00             1             1
   35             1             0    -1.000E+00             1             1
   36             1             0    -1.000E+00             1             1
   37             1             0    -1.000E+00             1             1
   38             1             0    -1.000E+00             1             1
   39             1             0    -1.000E+00             1             1
   40             1             0    -1.000E+00             1             1

   INTERPRETATION OF LAYER FLAGS:
                        INTERBLOCK     HORIZONTAL    DATA IN
         LAYER TYPE   TRANSMISSIVITY   ANISOTROPY   ARRAY VKA   WETTABILITY
 LAYER      (LAYTYP)      (LAYAVG)       (CHANI)      (LAYVKA)      (LAYWET)
 ---------------------------------------------------------------------------
    1   CONVERTIBLE      HARMONIC      VARIABLE    ANISOTROPY      WETTABLE
    2   CONVERTIBLE      HARMONIC      VARIABLE    ANISOTROPY      WETTABLE
    3   CONVERTIBLE      HARMONIC      VARIABLE    ANISOTROPY      WETTABLE
    4   CONVERTIBLE      HARMONIC      VARIABLE    ANISOTROPY      WETTABLE
    5   CONVERTIBLE      HARMONIC      VARIABLE    ANISOTROPY      WETTABLE
    6   CONVERTIBLE      HARMONIC      VARIABLE    ANISOTROPY      WETTABLE
    7   CONVERTIBLE      HARMONIC      VARIABLE    ANISOTROPY      WETTABLE
    8   CONVERTIBLE      HARMONIC      VARIABLE    ANISOTROPY      WETTABLE
    9   CONVERTIBLE      HARMONIC      VARIABLE    ANISOTROPY      WETTABLE
   10   CONVERTIBLE      HARMONIC      VARIABLE    ANISOTROPY      WETTABLE
   11   CONVERTIBLE      HARMONIC      VARIABLE    ANISOTROPY      WETTABLE
   12   CONVERTIBLE      HARMONIC      VARIABLE    ANISOTROPY      WETTABLE
   13   CONVERTIBLE      HARMONIC      VARIABLE    ANISOTROPY      WETTABLE
   14   CONVERTIBLE      HARMONIC      VARIABLE    ANISOTROPY      WETTABLE
   15   CONVERTIBLE      HARMONIC      VARIABLE    ANISOTROPY      WETTABLE
   16   CONVERTIBLE      HARMONIC      VARIABLE    ANISOTROPY      WETTABLE
   17   CONVERTIBLE      HARMONIC      VARIABLE    ANISOTROPY      WETTABLE
   18   CONVERTIBLE      HARMONIC      VARIABLE    ANISOTROPY      WETTABLE
   19   CONVERTIBLE      HARMONIC      VARIABLE    ANISOTROPY      WETTABLE
   20   CONVERTIBLE      HARMONIC      VARIABLE    ANISOTROPY      WETTABLE
   21   CONVERTIBLE      HARMONIC      VARIABLE    ANISOTROPY      WETTABLE
   22   CONVERTIBLE      HARMONIC      VARIABLE    ANISOTROPY      WETTABLE
   23   CONVERTIBLE      HARMONIC      VARIABLE    ANISOTROPY      WETTABLE
   24   CONVERTIBLE      HARMONIC      VARIABLE    ANISOTROPY      WETTABLE
   25   CONVERTIBLE      HARMONIC      VARIABLE    ANISOTROPY      WETTABLE
   26   CONVERTIBLE      HARMONIC      VARIABLE    ANISOTROPY      WETTABLE
   27   CONVERTIBLE      HARMONIC      VARIABLE    ANISOTROPY      WETTABLE
   28   CONVERTIBLE      HARMONIC      VARIABLE    ANISOTROPY      WETTABLE
   29   CONVERTIBLE      HARMONIC      VARIABLE    ANISOTROPY      WETTABLE
   30   CONVERTIBLE      HARMONIC      VARIABLE    ANISOTROPY      WETTABLE
   31   CONVERTIBLE      HARMONIC      VARIABLE    ANISOTROPY      WETTABLE
   32   CONVERTIBLE      HARMONIC      VARIABLE    ANISOTROPY      WETTABLE
   33   CONVERTIBLE      HARMONIC      VARIABLE    ANISOTROPY      WETTABLE
   34   CONVERTIBLE      HARMONIC      VARIABLE    ANISOTROPY      WETTABLE
   35   CONVERTIBLE      HARMONIC      VARIABLE    ANISOTROPY      WETTABLE
   36   CONVERTIBLE      HARMONIC      VARIABLE    ANISOTROPY      WETTABLE
   37   CONVERTIBLE      HARMONIC      VARIABLE    ANISOTROPY      WETTABLE
   38   CONVERTIBLE      HARMONIC      VARIABLE    ANISOTROPY      WETTABLE
   39   CONVERTIBLE      HARMONIC      VARIABLE    ANISOTROPY      WETTABLE
   40   CONVERTIBLE      HARMONIC      VARIABLE    ANISOTROPY      WETTABLE

 WETTING CAPABILITY IS ACTIVE IN  40 LAYERS
  WETTING FACTOR=  0.100000000000000     
  WETTING ITERATION INTERVAL=           1
  IHDWET=           1



              HYD. COND. ALONG ROWS FOR LAYER   1
 READING ON UNIT    8 WITH FORMAT: (FREE)              

   HORIZ. ANI. (COL./ROW) =   1.00000     FOR LAYER   1



            HORIZ. TO VERTICAL ANI. FOR LAYER   1
 READING ON UNIT    8 WITH FORMAT: (FREE)              



                   SPECIFIC STORAGE FOR LAYER   1
 READING ON UNIT    8 WITH FORMAT: (FREE)              



                     SPECIFIC YIELD FOR LAYER   1
 READING ON UNIT    8 WITH FORMAT: (FREE)              



                   WETDRY PARAMETER FOR LAYER   1
 READING ON UNIT    8 WITH FORMAT: (FREE)              



              HYD. COND. ALONG ROWS FOR LAYER   2
 READING ON UNIT    8 WITH FORMAT: (FREE)              

   HORIZ. ANI. (COL./ROW) =   1.00000     FOR LAYER   2



            HORIZ. TO VERTICAL ANI. FOR LAYER   2
 READING ON UNIT    8 WITH FORMAT: (FREE)              



                   SPECIFIC STORAGE FOR LAYER   2
 READING ON UNIT    8 WITH FORMAT: (FREE)              



                     SPECIFIC YIELD FOR LAYER   2
 READING ON UNIT    8 WITH FORMAT: (FREE)              



                   WETDRY PARAMETER FOR LAYER   2
 READING ON UNIT    8 WITH FORMAT: (FREE)              



              HYD. COND. ALONG ROWS FOR LAYER   3
 READING ON UNIT    8 WITH FORMAT: (FREE)              

   HORIZ. ANI. (COL./ROW) =   1.00000     FOR LAYER   3



            HORIZ. TO VERTICAL ANI. FOR LAYER   3
 READING ON UNIT    8 WITH FORMAT: (FREE)              



                   SPECIFIC STORAGE FOR LAYER   3
 READING ON UNIT    8 WITH FORMAT: (FREE)              



                     SPECIFIC YIELD FOR LAYER   3
 READING ON UNIT    8 WITH FORMAT: (FREE)              



                   WETDRY PARAMETER FOR LAYER   3
 READING ON UNIT    8 WITH FORMAT: (FREE)              



              HYD. COND. ALONG ROWS FOR LAYER   4
 READING ON UNIT    8 WITH FORMAT: (FREE)              

   HORIZ. ANI. (COL./ROW) =   1.00000     FOR LAYER   4



            HORIZ. TO VERTICAL ANI. FOR LAYER   4
 READING ON UNIT    8 WITH FORMAT: (FREE)              



                   SPECIFIC STORAGE FOR LAYER   4
 READING ON UNIT    8 WITH FORMAT: (FREE)              



                     SPECIFIC YIELD FOR LAYER   4
 READING ON UNIT    8 WITH FORMAT: (FREE)              



                   WETDRY PARAMETER FOR LAYER   4
 READING ON UNIT    8 WITH FORMAT: (FREE)              



              HYD. COND. ALONG ROWS FOR LAYER   5
 READING ON UNIT    8 WITH FORMAT: (FREE)              

   HORIZ. ANI. (COL./ROW) =   1.00000     FOR LAYER   5



            HORIZ. TO VERTICAL ANI. FOR LAYER   5
 READING ON UNIT    8 WITH FORMAT: (FREE)              



                   SPECIFIC STORAGE FOR LAYER   5
 READING ON UNIT    8 WITH FORMAT: (FREE)              



                     SPECIFIC YIELD FOR LAYER   5
 READING ON UNIT    8 WITH FORMAT: (FREE)              



                   WETDRY PARAMETER FOR LAYER   5
 READING ON UNIT    8 WITH FORMAT: (FREE)              



              HYD. COND. ALONG ROWS FOR LAYER   6
 READING ON UNIT    8 WITH FORMAT: (FREE)              

   HORIZ. ANI. (COL./ROW) =   1.00000     FOR LAYER   6



            HORIZ. TO VERTICAL ANI. FOR LAYER   6
 READING ON UNIT    8 WITH FORMAT: (FREE)              



                   SPECIFIC STORAGE FOR LAYER   6
 READING ON UNIT    8 WITH FORMAT: (FREE)              



                     SPECIFIC YIELD FOR LAYER   6
 READING ON UNIT    8 WITH FORMAT: (FREE)              



                   WETDRY PARAMETER FOR LAYER   6
 READING ON UNIT    8 WITH FORMAT: (FREE)              



              HYD. COND. ALONG ROWS FOR LAYER   7
 READING ON UNIT    8 WITH FORMAT: (FREE)              

   HORIZ. ANI. (COL./ROW) =   1.00000     FOR LAYER   7



            HORIZ. TO VERTICAL ANI. FOR LAYER   7
 READING ON UNIT    8 WITH FORMAT: (FREE)              



                   SPECIFIC STORAGE FOR LAYER   7
 READING ON UNIT    8 WITH FORMAT: (FREE)              



                     SPECIFIC YIELD FOR LAYER   7
 READING ON UNIT    8 WITH FORMAT: (FREE)              



                   WETDRY PARAMETER FOR LAYER   7
 READING ON UNIT    8 WITH FORMAT: (FREE)              



              HYD. COND. ALONG ROWS FOR LAYER   8
 READING ON UNIT    8 WITH FORMAT: (FREE)              

   HORIZ. ANI. (COL./ROW) =   1.00000     FOR LAYER   8



            HORIZ. TO VERTICAL ANI. FOR LAYER   8
 READING ON UNIT    8 WITH FORMAT: (FREE)              



                   SPECIFIC STORAGE FOR LAYER   8
 READING ON UNIT    8 WITH FORMAT: (FREE)              



                     SPECIFIC YIELD FOR LAYER   8
 READING ON UNIT    8 WITH FORMAT: (FREE)              



                   WETDRY PARAMETER FOR LAYER   8
 READING ON UNIT    8 WITH FORMAT: (FREE)              



              HYD. COND. ALONG ROWS FOR LAYER   9
 READING ON UNIT    8 WITH FORMAT: (FREE)              

   HORIZ. ANI. (COL./ROW) =   1.00000     FOR LAYER   9



            HORIZ. TO VERTICAL ANI. FOR LAYER   9
 READING ON UNIT    8 WITH FORMAT: (FREE)              



                   SPECIFIC STORAGE FOR LAYER   9
 READING ON UNIT    8 WITH FORMAT: (FREE)              



                     SPECIFIC YIELD FOR LAYER   9
 READING ON UNIT    8 WITH FORMAT: (FREE)              



                   WETDRY PARAMETER FOR LAYER   9
 READING ON UNIT    8 WITH FORMAT: (FREE)              



              HYD. COND. ALONG ROWS FOR LAYER  10
 READING ON UNIT    8 WITH FORMAT: (FREE)              

   HORIZ. ANI. (COL./ROW) =   1.00000     FOR LAYER  10



            HORIZ. TO VERTICAL ANI. FOR LAYER  10
 READING ON UNIT    8 WITH FORMAT: (FREE)              



                   SPECIFIC STORAGE FOR LAYER  10
 READING ON UNIT    8 WITH FORMAT: (FREE)              



                     SPECIFIC YIELD FOR LAYER  10
 READING ON UNIT    8 WITH FORMAT: (FREE)              



                   WETDRY PARAMETER FOR LAYER  10
 READING ON UNIT    8 WITH FORMAT: (FREE)              



              HYD. COND. ALONG ROWS FOR LAYER  11
 READING ON UNIT    8 WITH FORMAT: (FREE)              

   HORIZ. ANI. (COL./ROW) =   1.00000     FOR LAYER  11



            HORIZ. TO VERTICAL ANI. FOR LAYER  11
 READING ON UNIT    8 WITH FORMAT: (FREE)              



                   SPECIFIC STORAGE FOR LAYER  11
 READING ON UNIT    8 WITH FORMAT: (FREE)              



                     SPECIFIC YIELD FOR LAYER  11
 READING ON UNIT    8 WITH FORMAT: (FREE)              



                   WETDRY PARAMETER FOR LAYER  11
 READING ON UNIT    8 WITH FORMAT: (FREE)              



              HYD. COND. ALONG ROWS FOR LAYER  12
 READING ON UNIT    8 WITH FORMAT: (FREE)              

   HORIZ. ANI. (COL./ROW) =   1.00000     FOR LAYER  12



            HORIZ. TO VERTICAL ANI. FOR LAYER  12
 READING ON UNIT    8 WITH FORMAT: (FREE)              



                   SPECIFIC STORAGE FOR LAYER  12
 READING ON UNIT    8 WITH FORMAT: (FREE)              



                     SPECIFIC YIELD FOR LAYER  12
 READING ON UNIT    8 WITH FORMAT: (FREE)              



                   WETDRY PARAMETER FOR LAYER  12
 READING ON UNIT    8 WITH FORMAT: (FREE)              



              HYD. COND. ALONG ROWS FOR LAYER  13
 READING ON UNIT    8 WITH FORMAT: (FREE)              

   HORIZ. ANI. (COL./ROW) =   1.00000     FOR LAYER  13



            HORIZ. TO VERTICAL ANI. FOR LAYER  13
 READING ON UNIT    8 WITH FORMAT: (FREE)              



                   SPECIFIC STORAGE FOR LAYER  13
 READING ON UNIT    8 WITH FORMAT: (FREE)              



                     SPECIFIC YIELD FOR LAYER  13
 READING ON UNIT    8 WITH FORMAT: (FREE)              



                   WETDRY PARAMETER FOR LAYER  13
 READING ON UNIT    8 WITH FORMAT: (FREE)              



              HYD. COND. ALONG ROWS FOR LAYER  14
 READING ON UNIT    8 WITH FORMAT: (FREE)              

   HORIZ. ANI. (COL./ROW) =   1.00000     FOR LAYER  14



            HORIZ. TO VERTICAL ANI. FOR LAYER  14
 READING ON UNIT    8 WITH FORMAT: (FREE)              



                   SPECIFIC STORAGE FOR LAYER  14
 READING ON UNIT    8 WITH FORMAT: (FREE)              



                     SPECIFIC YIELD FOR LAYER  14
 READING ON UNIT    8 WITH FORMAT: (FREE)              



                   WETDRY PARAMETER FOR LAYER  14
 READING ON UNIT    8 WITH FORMAT: (FREE)              



              HYD. COND. ALONG ROWS FOR LAYER  15
 READING ON UNIT    8 WITH FORMAT: (FREE)              

   HORIZ. ANI. (COL./ROW) =   1.00000     FOR LAYER  15



            HORIZ. TO VERTICAL ANI. FOR LAYER  15
 READING ON UNIT    8 WITH FORMAT: (FREE)              



                   SPECIFIC STORAGE FOR LAYER  15
 READING ON UNIT    8 WITH FORMAT: (FREE)              



                     SPECIFIC YIELD FOR LAYER  15
 READING ON UNIT    8 WITH FORMAT: (FREE)              



                   WETDRY PARAMETER FOR LAYER  15
 READING ON UNIT    8 WITH FORMAT: (FREE)              



              HYD. COND. ALONG ROWS FOR LAYER  16
 READING ON UNIT    8 WITH FORMAT: (FREE)              

   HORIZ. ANI. (COL./ROW) =   1.00000     FOR LAYER  16



            HORIZ. TO VERTICAL ANI. FOR LAYER  16
 READING ON UNIT    8 WITH FORMAT: (FREE)              



                   SPECIFIC STORAGE FOR LAYER  16
 READING ON UNIT    8 WITH FORMAT: (FREE)              



                     SPECIFIC YIELD FOR LAYER  16
 READING ON UNIT    8 WITH FORMAT: (FREE)              



                   WETDRY PARAMETER FOR LAYER  16
 READING ON UNIT    8 WITH FORMAT: (FREE)              



              HYD. COND. ALONG ROWS FOR LAYER  17
 READING ON UNIT    8 WITH FORMAT: (FREE)              

   HORIZ. ANI. (COL./ROW) =   1.00000     FOR LAYER  17



            HORIZ. TO VERTICAL ANI. FOR LAYER  17
 READING ON UNIT    8 WITH FORMAT: (FREE)              



                   SPECIFIC STORAGE FOR LAYER  17
 READING ON UNIT    8 WITH FORMAT: (FREE)              



                     SPECIFIC YIELD FOR LAYER  17
 READING ON UNIT    8 WITH FORMAT: (FREE)              



                   WETDRY PARAMETER FOR LAYER  17
 READING ON UNIT    8 WITH FORMAT: (FREE)              



              HYD. COND. ALONG ROWS FOR LAYER  18
 READING ON UNIT    8 WITH FORMAT: (FREE)              

   HORIZ. ANI. (COL./ROW) =   1.00000     FOR LAYER  18



            HORIZ. TO VERTICAL ANI. FOR LAYER  18
 READING ON UNIT    8 WITH FORMAT: (FREE)              



                   SPECIFIC STORAGE FOR LAYER  18
 READING ON UNIT    8 WITH FORMAT: (FREE)              



                     SPECIFIC YIELD FOR LAYER  18
 READING ON UNIT    8 WITH FORMAT: (FREE)              



                   WETDRY PARAMETER FOR LAYER  18
 READING ON UNIT    8 WITH FORMAT: (FREE)              



              HYD. COND. ALONG ROWS FOR LAYER  19
 READING ON UNIT    8 WITH FORMAT: (FREE)              

   HORIZ. ANI. (COL./ROW) =   1.00000     FOR LAYER  19



            HORIZ. TO VERTICAL ANI. FOR LAYER  19
 READING ON UNIT    8 WITH FORMAT: (FREE)              



                   SPECIFIC STORAGE FOR LAYER  19
 READING ON UNIT    8 WITH FORMAT: (FREE)              



                     SPECIFIC YIELD FOR LAYER  19
 READING ON UNIT    8 WITH FORMAT: (FREE)              



                   WETDRY PARAMETER FOR LAYER  19
 READING ON UNIT    8 WITH FORMAT: (FREE)              



              HYD. COND. ALONG ROWS FOR LAYER  20
 READING ON UNIT    8 WITH FORMAT: (FREE)              

   HORIZ. ANI. (COL./ROW) =   1.00000     FOR LAYER  20



            HORIZ. TO VERTICAL ANI. FOR LAYER  20
 READING ON UNIT    8 WITH FORMAT: (FREE)              



                   SPECIFIC STORAGE FOR LAYER  20
 READING ON UNIT    8 WITH FORMAT: (FREE)              



                     SPECIFIC YIELD FOR LAYER  20
 READING ON UNIT    8 WITH FORMAT: (FREE)              



                   WETDRY PARAMETER FOR LAYER  20
 READING ON UNIT    8 WITH FORMAT: (FREE)              



              HYD. COND. ALONG ROWS FOR LAYER  21
 READING ON UNIT    8 WITH FORMAT: (FREE)              

   HORIZ. ANI. (COL./ROW) =   1.00000     FOR LAYER  21



            HORIZ. TO VERTICAL ANI. FOR LAYER  21
 READING ON UNIT    8 WITH FORMAT: (FREE)              



                   SPECIFIC STORAGE FOR LAYER  21
 READING ON UNIT    8 WITH FORMAT: (FREE)              



                     SPECIFIC YIELD FOR LAYER  21
 READING ON UNIT    8 WITH FORMAT: (FREE)              



                   WETDRY PARAMETER FOR LAYER  21
 READING ON UNIT    8 WITH FORMAT: (FREE)              



              HYD. COND. ALONG ROWS FOR LAYER  22
 READING ON UNIT    8 WITH FORMAT: (FREE)              

   HORIZ. ANI. (COL./ROW) =   1.00000     FOR LAYER  22



            HORIZ. TO VERTICAL ANI. FOR LAYER  22
 READING ON UNIT    8 WITH FORMAT: (FREE)              



                   SPECIFIC STORAGE FOR LAYER  22
 READING ON UNIT    8 WITH FORMAT: (FREE)              



                     SPECIFIC YIELD FOR LAYER  22
 READING ON UNIT    8 WITH FORMAT: (FREE)              



                   WETDRY PARAMETER FOR LAYER  22
 READING ON UNIT    8 WITH FORMAT: (FREE)              



              HYD. COND. ALONG ROWS FOR LAYER  23
 READING ON UNIT    8 WITH FORMAT: (FREE)              

   HORIZ. ANI. (COL./ROW) =   1.00000     FOR LAYER  23



            HORIZ. TO VERTICAL ANI. FOR LAYER  23
 READING ON UNIT    8 WITH FORMAT: (FREE)              



                   SPECIFIC STORAGE FOR LAYER  23
 READING ON UNIT    8 WITH FORMAT: (FREE)              



                     SPECIFIC YIELD FOR LAYER  23
 READING ON UNIT    8 WITH FORMAT: (FREE)              



                   WETDRY PARAMETER FOR LAYER  23
 READING ON UNIT    8 WITH FORMAT: (FREE)              



              HYD. COND. ALONG ROWS FOR LAYER  24
 READING ON UNIT    8 WITH FORMAT: (FREE)              

   HORIZ. ANI. (COL./ROW) =   1.00000     FOR LAYER  24



            HORIZ. TO VERTICAL ANI. FOR LAYER  24
 READING ON UNIT    8 WITH FORMAT: (FREE)              



                   SPECIFIC STORAGE FOR LAYER  24
 READING ON UNIT    8 WITH FORMAT: (FREE)              



                     SPECIFIC YIELD FOR LAYER  24
 READING ON UNIT    8 WITH FORMAT: (FREE)              



                   WETDRY PARAMETER FOR LAYER  24
 READING ON UNIT    8 WITH FORMAT: (FREE)              



              HYD. COND. ALONG ROWS FOR LAYER  25
 READING ON UNIT    8 WITH FORMAT: (FREE)              

   HORIZ. ANI. (COL./ROW) =   1.00000     FOR LAYER  25



            HORIZ. TO VERTICAL ANI. FOR LAYER  25
 READING ON UNIT    8 WITH FORMAT: (FREE)              



                   SPECIFIC STORAGE FOR LAYER  25
 READING ON UNIT    8 WITH FORMAT: (FREE)              



                     SPECIFIC YIELD FOR LAYER  25
 READING ON UNIT    8 WITH FORMAT: (FREE)              



                   WETDRY PARAMETER FOR LAYER  25
 READING ON UNIT    8 WITH FORMAT: (FREE)              



              HYD. COND. ALONG ROWS FOR LAYER  26
 READING ON UNIT    8 WITH FORMAT: (FREE)              

   HORIZ. ANI. (COL./ROW) =   1.00000     FOR LAYER  26



            HORIZ. TO VERTICAL ANI. FOR LAYER  26
 READING ON UNIT    8 WITH FORMAT: (FREE)              



                   SPECIFIC STORAGE FOR LAYER  26
 READING ON UNIT    8 WITH FORMAT: (FREE)              



                     SPECIFIC YIELD FOR LAYER  26
 READING ON UNIT    8 WITH FORMAT: (FREE)              



                   WETDRY PARAMETER FOR LAYER  26
 READING ON UNIT    8 WITH FORMAT: (FREE)              



              HYD. COND. ALONG ROWS FOR LAYER  27
 READING ON UNIT    8 WITH FORMAT: (FREE)              

   HORIZ. ANI. (COL./ROW) =   1.00000     FOR LAYER  27



            HORIZ. TO VERTICAL ANI. FOR LAYER  27
 READING ON UNIT    8 WITH FORMAT: (FREE)              



                   SPECIFIC STORAGE FOR LAYER  27
 READING ON UNIT    8 WITH FORMAT: (FREE)              



                     SPECIFIC YIELD FOR LAYER  27
 READING ON UNIT    8 WITH FORMAT: (FREE)              



                   WETDRY PARAMETER FOR LAYER  27
 READING ON UNIT    8 WITH FORMAT: (FREE)              



              HYD. COND. ALONG ROWS FOR LAYER  28
 READING ON UNIT    8 WITH FORMAT: (FREE)              

   HORIZ. ANI. (COL./ROW) =   1.00000     FOR LAYER  28



            HORIZ. TO VERTICAL ANI. FOR LAYER  28
 READING ON UNIT    8 WITH FORMAT: (FREE)              



                   SPECIFIC STORAGE FOR LAYER  28
 READING ON UNIT    8 WITH FORMAT: (FREE)              



                     SPECIFIC YIELD FOR LAYER  28
 READING ON UNIT    8 WITH FORMAT: (FREE)              



                   WETDRY PARAMETER FOR LAYER  28
 READING ON UNIT    8 WITH FORMAT: (FREE)              



              HYD. COND. ALONG ROWS FOR LAYER  29
 READING ON UNIT    8 WITH FORMAT: (FREE)              

   HORIZ. ANI. (COL./ROW) =   1.00000     FOR LAYER  29



            HORIZ. TO VERTICAL ANI. FOR LAYER  29
 READING ON UNIT    8 WITH FORMAT: (FREE)              



                   SPECIFIC STORAGE FOR LAYER  29
 READING ON UNIT    8 WITH FORMAT: (FREE)              



                     SPECIFIC YIELD FOR LAYER  29
 READING ON UNIT    8 WITH FORMAT: (FREE)              



                   WETDRY PARAMETER FOR LAYER  29
 READING ON UNIT    8 WITH FORMAT: (FREE)              



              HYD. COND. ALONG ROWS FOR LAYER  30
 READING ON UNIT    8 WITH FORMAT: (FREE)              

   HORIZ. ANI. (COL./ROW) =   1.00000     FOR LAYER  30



            HORIZ. TO VERTICAL ANI. FOR LAYER  30
 READING ON UNIT    8 WITH FORMAT: (FREE)              



                   SPECIFIC STORAGE FOR LAYER  30
 READING ON UNIT    8 WITH FORMAT: (FREE)              



                     SPECIFIC YIELD FOR LAYER  30
 READING ON UNIT    8 WITH FORMAT: (FREE)              



                   WETDRY PARAMETER FOR LAYER  30
 READING ON UNIT    8 WITH FORMAT: (FREE)              



              HYD. COND. ALONG ROWS FOR LAYER  31
 READING ON UNIT    8 WITH FORMAT: (FREE)              

   HORIZ. ANI. (COL./ROW) =   1.00000     FOR LAYER  31



            HORIZ. TO VERTICAL ANI. FOR LAYER  31
 READING ON UNIT    8 WITH FORMAT: (FREE)              



                   SPECIFIC STORAGE FOR LAYER  31
 READING ON UNIT    8 WITH FORMAT: (FREE)              



                     SPECIFIC YIELD FOR LAYER  31
 READING ON UNIT    8 WITH FORMAT: (FREE)              



                   WETDRY PARAMETER FOR LAYER  31
 READING ON UNIT    8 WITH FORMAT: (FREE)              



              HYD. COND. ALONG ROWS FOR LAYER  32
 READING ON UNIT    8 WITH FORMAT: (FREE)              

   HORIZ. ANI. (COL./ROW) =   1.00000     FOR LAYER  32



            HORIZ. TO VERTICAL ANI. FOR LAYER  32
 READING ON UNIT    8 WITH FORMAT: (FREE)              



                   SPECIFIC STORAGE FOR LAYER  32
 READING ON UNIT    8 WITH FORMAT: (FREE)              



                     SPECIFIC YIELD FOR LAYER  32
 READING ON UNIT    8 WITH FORMAT: (FREE)              



                   WETDRY PARAMETER FOR LAYER  32
 READING ON UNIT    8 WITH FORMAT: (FREE)              



              HYD. COND. ALONG ROWS FOR LAYER  33
 READING ON UNIT    8 WITH FORMAT: (FREE)              

   HORIZ. ANI. (COL./ROW) =   1.00000     FOR LAYER  33



            HORIZ. TO VERTICAL ANI. FOR LAYER  33
 READING ON UNIT    8 WITH FORMAT: (FREE)              



                   SPECIFIC STORAGE FOR LAYER  33
 READING ON UNIT    8 WITH FORMAT: (FREE)              



                     SPECIFIC YIELD FOR LAYER  33
 READING ON UNIT    8 WITH FORMAT: (FREE)              



                   WETDRY PARAMETER FOR LAYER  33
 READING ON UNIT    8 WITH FORMAT: (FREE)              



              HYD. COND. ALONG ROWS FOR LAYER  34
 READING ON UNIT    8 WITH FORMAT: (FREE)              

   HORIZ. ANI. (COL./ROW) =   1.00000     FOR LAYER  34



            HORIZ. TO VERTICAL ANI. FOR LAYER  34
 READING ON UNIT    8 WITH FORMAT: (FREE)              



                   SPECIFIC STORAGE FOR LAYER  34
 READING ON UNIT    8 WITH FORMAT: (FREE)              



                     SPECIFIC YIELD FOR LAYER  34
 READING ON UNIT    8 WITH FORMAT: (FREE)              



                   WETDRY PARAMETER FOR LAYER  34
 READING ON UNIT    8 WITH FORMAT: (FREE)              



              HYD. COND. ALONG ROWS FOR LAYER  35
 READING ON UNIT    8 WITH FORMAT: (FREE)              

   HORIZ. ANI. (COL./ROW) =   1.00000     FOR LAYER  35



            HORIZ. TO VERTICAL ANI. FOR LAYER  35
 READING ON UNIT    8 WITH FORMAT: (FREE)              



                   SPECIFIC STORAGE FOR LAYER  35
 READING ON UNIT    8 WITH FORMAT: (FREE)              



                     SPECIFIC YIELD FOR LAYER  35
 READING ON UNIT    8 WITH FORMAT: (FREE)              



                   WETDRY PARAMETER FOR LAYER  35
 READING ON UNIT    8 WITH FORMAT: (FREE)              



              HYD. COND. ALONG ROWS FOR LAYER  36
 READING ON UNIT    8 WITH FORMAT: (FREE)              

   HORIZ. ANI. (COL./ROW) =   1.00000     FOR LAYER  36



            HORIZ. TO VERTICAL ANI. FOR LAYER  36
 READING ON UNIT    8 WITH FORMAT: (FREE)              



                   SPECIFIC STORAGE FOR LAYER  36
 READING ON UNIT    8 WITH FORMAT: (FREE)              



                     SPECIFIC YIELD FOR LAYER  36
 READING ON UNIT    8 WITH FORMAT: (FREE)              



                   WETDRY PARAMETER FOR LAYER  36
 READING ON UNIT    8 WITH FORMAT: (FREE)              



              HYD. COND. ALONG ROWS FOR LAYER  37
 READING ON UNIT    8 WITH FORMAT: (FREE)              

   HORIZ. ANI. (COL./ROW) =   1.00000     FOR LAYER  37



            HORIZ. TO VERTICAL ANI. FOR LAYER  37
 READING ON UNIT    8 WITH FORMAT: (FREE)              



                   SPECIFIC STORAGE FOR LAYER  37
 READING ON UNIT    8 WITH FORMAT: (FREE)              



                     SPECIFIC YIELD FOR LAYER  37
 READING ON UNIT    8 WITH FORMAT: (FREE)              



                   WETDRY PARAMETER FOR LAYER  37
 READING ON UNIT    8 WITH FORMAT: (FREE)              



              HYD. COND. ALONG ROWS FOR LAYER  38
 READING ON UNIT    8 WITH FORMAT: (FREE)              

   HORIZ. ANI. (COL./ROW) =   1.00000     FOR LAYER  38



            HORIZ. TO VERTICAL ANI. FOR LAYER  38
 READING ON UNIT    8 WITH FORMAT: (FREE)              



                   SPECIFIC STORAGE FOR LAYER  38
 READING ON UNIT    8 WITH FORMAT: (FREE)              



                     SPECIFIC YIELD FOR LAYER  38
 READING ON UNIT    8 WITH FORMAT: (FREE)              



                   WETDRY PARAMETER FOR LAYER  38
 READING ON UNIT    8 WITH FORMAT: (FREE)              



              HYD. COND. ALONG ROWS FOR LAYER  39
 READING ON UNIT    8 WITH FORMAT: (FREE)              

   HORIZ. ANI. (COL./ROW) =   1.00000     FOR LAYER  39



            HORIZ. TO VERTICAL ANI. FOR LAYER  39
 READING ON UNIT    8 WITH FORMAT: (FREE)              



                   SPECIFIC STORAGE FOR LAYER  39
 READING ON UNIT    8 WITH FORMAT: (FREE)              



                     SPECIFIC YIELD FOR LAYER  39
 READING ON UNIT    8 WITH FORMAT: (FREE)              



                   WETDRY PARAMETER FOR LAYER  39
 READING ON UNIT    8 WITH FORMAT: (FREE)              

    HYD. COND. ALONG ROWS =   4.00000     FOR LAYER  40

   HORIZ. ANI. (COL./ROW) =   1.00000     FOR LAYER  40

  HORIZ. TO VERTICAL ANI. =   1.00000     FOR LAYER  40

         SPECIFIC STORAGE =  1.000000E-04 FOR LAYER  40

           SPECIFIC YIELD =  8.000000E-02 FOR LAYER  40

         WETDRY PARAMETER = -1.000000E-02 FOR LAYER  40

 DRN -- DRAIN PACKAGE, VERSION 7, 5/2/2005 INPUT READ FROM UNIT   10
 #
 No named parameters
 MAXIMUM OF     75 ACTIVE DRAINS AT ONE TIME
 CELL-BY-CELL FLOWS WILL BE SAVED ON UNIT   40
 AUXILIARY DRAIN VARIABLE: IFACE           
 AUXILIARY DRAIN VARIABLE: CONDFACT        
 AUXILIARY DRAIN VARIABLE: CELLGRP         


     0 Drain parameters

 GHB -- GENERAL-HEAD BOUNDARY PACKAGE, VERSION 7, 5/2/2005
         INPUT READ FROM UNIT   11
 #
 No named parameters
 MAXIMUM OF     38 ACTIVE GHB CELLS AT ONE TIME
 CELL-BY-CELL FLOWS WILL BE SAVED ON UNIT   40
 AUXILIARY GHB VARIABLE: IFACE           
 AUXILIARY GHB VARIABLE: CONDFACT        
 AUXILIARY GHB VARIABLE: CELLGRP         


     0 GHB parameters

 PCG -- CONJUGATE-GRADIENT SOLUTION PACKAGE, VERSION 7, 5/2/2005
 MAXIMUM OF   5000 CALLS OF SOLUTION ROUTINE
 MAXIMUM OF     50 INTERNAL ITERATIONS PER CALL TO SOLUTION ROUTINE
 MATRIX PRECONDITIONING TYPE :    1



                                    SOLUTION BY THE CONJUGATE-GRADIENT METHOD
                                   -------------------------------------------
                    MAXIMUM NUMBER OF CALLS TO PCG ROUTINE =     5000
                        MAXIMUM ITERATIONS PER CALL TO PCG =       50
                               MATRIX PRECONDITIONING TYPE =        1
        RELAXATION FACTOR (ONLY USED WITH PRECOND. TYPE 1) =    0.10000E+01
 PARAMETER OF POLYNOMIAL PRECOND. = 2 (2) OR IS CALCULATED :        0
                         HEAD CHANGE CRITERION FOR CLOSURE =    0.10000E-03
                     RESIDUAL CHANGE CRITERION FOR CLOSURE =    0.10000E-03
            PCG HEAD AND RESIDUAL CHANGE PRINTOUT INTERVAL =      999
     PRINTING FROM SOLVER IS LIMITED(1) OR SUPPRESSED (>1) =        2
                            STEADY-STATE DAMPING PARAMETER =    0.10000E+01
                               TRANSIENT DAMPING PARAMETER =    0.10000E+01

 WARNING READING LMT PACKAGE INPUT DATA:
 [STANDARD] HEADER NO LONGER SUPPORTED; [EXTENDED] HEADER USED INSTEAD.


 ***Link-MT3DMS Package v7***
 OPENING LINK-MT3DMS OUTPUT FILE: case2.hff                                                                                                                                                                                               
 ON UNIT NUMBER:   333
 FILE TYPE: UNFORMATTED
 HEADER OPTION: EXTENDED
 ***Link-MT3DMS Package v7***

1
                            STRESS PERIOD NO.    1, LENGTH =   10.00000    
                            -----------------------------------------------

                              NUMBER OF TIME STEPS =    10

                               MULTIPLIER FOR DELT =     1.000

                            INITIAL TIME STEP SIZE =   1.000000    

 DRAIN NO.  LAYER   ROW   COL     DRAIN EL.  CONDUCTANCE         IFACE           CONDFACT        CELLGRP         
 ----------------------------------------------------------------------------------------------------------------
      1      3      1     26       37.50           1.000           6.000           0.000          -1.000    
      2      4      1     27       36.50           1.000           6.000           0.000          -1.000    
      3      4      1     28       36.50           1.000           6.000           0.000          -1.000    
      4      5      1     29       35.50           1.000           6.000           0.000          -1.000    
      5      5      1     30       35.50           1.000           6.000           0.000          -1.000    
      6      6      1     31       34.50           1.000           6.000           0.000          -1.000    
      7      6      1     32       34.50           1.000           6.000           0.000          -1.000    
      8      7      1     33       33.50           1.000           6.000           0.000          -1.000    
      9      7      1     34       33.50           1.000           6.000           0.000          -1.000    
     10      8      1     35       32.50           1.000           6.000           0.000          -1.000    
     11      8      1     36       32.50           1.000           6.000           0.000          -1.000    
     12      9      1     37       31.50           1.000           6.000           0.000          -1.000    
     13      9      1     38       31.50           1.000           6.000           0.000          -1.000    
     14     10      1     39       30.50           1.000           6.000           0.000          -1.000    
     15     10      1     40       30.50           1.000           6.000           0.000          -1.000    
     16     11      1     41       29.50           1.000           6.000           0.000          -1.000    
     17     11      1     42       29.50           1.000           6.000           0.000          -1.000    
     18     12      1     43       28.50           1.000           6.000           0.000          -1.000    
     19     12      1     44       28.50           1.000           6.000           0.000          -1.000    
     20     13      1     45       27.50           1.000           6.000           0.000          -1.000    
     21     13      1     46       27.50           1.000           6.000           0.000          -1.000    
     22     14      1     47       26.50           1.000           6.000           0.000          -1.000    
     23     14      1     48       26.50           1.000           6.000           0.000          -1.000    
     24     15      1     49       25.50           1.000           6.000           0.000          -1.000    
     25     15      1     50       25.50           1.000           6.000           0.000          -1.000    
     26     16      1     51       24.50           1.000           6.000           0.000          -1.000    
     27     16      1     52       24.50           1.000           6.000           0.000          -1.000    
     28     17      1     53       23.50           1.000           6.000           0.000          -1.000    
     29     17      1     54       23.50           1.000           6.000           0.000          -1.000    
     30     18      1     55       22.50           1.000           6.000           0.000          -1.000    
     31     18      1     56       22.50           1.000           6.000           0.000          -1.000    
     32     19      1     57       21.50           1.000           6.000           0.000          -1.000    
     33     19      1     58       21.50           1.000           6.000           0.000          -1.000    
     34     20      1     59       20.50           1.000           6.000           0.000          -1.000    
     35     20      1     60       20.50           1.000           6.000           0.000          -1.000    
     36     21      1     61       19.50           1.000           6.000           0.000          -1.000    
     37     21      1     62       19.50           1.000           6.000           0.000          -1.000    
     38     22      1     63       18.50           1.000           6.000           0.000          -1.000    
     39     22      1     64       18.50           1.000           6.000           0.000          -1.000    
     40     23      1     65       17.50           1.000           6.000           0.000          -1.000    
     41     23      1     66       17.50           1.000           6.000           0.000          -1.000    
     42     24      1     67       16.50           1.000           6.000           0.000          -1.000    
     43     24      1     68       16.50           1.000           6.000           0.000          -1.000    
     44     25      1     69       15.50           1.000           6.000           0.000          -1.000    
     45     25      1     70       15.50           1.000           6.000           0.000          -1.000    
     46     26      1     71       14.50           1.000           6.000           0.000          -1.000    
     47     26      1     72       14.50           1.000           6.000           0.000          -1.000    
     48     27      1     73       13.50           1.000           6.000           0.000          -1.000    
     49     27      1     74       13.50           1.000           6.000           0.000          -1.000    
     50     28      1     75       12.50           1.000           6.000           0.000          -1.000    
     51     28      1     76       12.50           1.000           6.000           0.000          -1.000    
     52     29      1     77       11.50           1.000           6.000           0.000          -1.000    
     53     29      1     78       11.50           1.000           6.000           0.000          -1.000    
     54     30      1     79       10.50           1.000           6.000           0.000          -1.000    
     55     30      1     80       10.50           1.000           6.000           0.000          -1.000    
     56     31      1     81       9.500           1.000           6.000           0.000          -1.000    
     57     31      1     82       9.500           1.000           6.000           0.000          -1.000    
     58     32      1     83       8.500           1.000           6.000           0.000          -1.000    
     59     32      1     84       8.500           1.000           6.000           0.000          -1.000    
     60     33      1     85       7.500           1.000           6.000           0.000          -1.000    
     61     33      1     86       7.500           1.000           6.000           0.000          -1.000    
     62     34      1     87       6.500           1.000           6.000           0.000          -1.000    
     63     34      1     88       6.500           1.000           6.000           0.000          -1.000    
     64     35      1     89       5.500           1.000           6.000           0.000          -1.000    
     65     35      1     90       5.500           1.000           6.000           0.000          -1.000    
     66     36      1     91       4.500           1.000           6.000           0.000          -1.000    
     67     36      1     92       4.500           1.000           6.000           0.000          -1.000    
     68     37      1     93       3.500           1.000           6.000           0.000          -1.000    
     69     37      1     94       3.500           1.000           6.000           0.000          -1.000    
     70     38      1     95       2.500           1.000           6.000           0.000          -1.000    
     71     38      1     96       2.500           1.000           6.000           0.000          -1.000    
     72     39      1     97       1.500           1.000           6.000           0.000          -1.000    
     73     39      1     98       1.500           1.000           6.000           0.000          -1.000    
     74     40      1     99      0.5000           1.000           6.000           0.000          -1.000    
     75     40      1    100      0.5000           1.000           6.000           0.000          -1.000    

     75 DRAINS

 BOUND. NO. LAYER   ROW   COL     STAGE      CONDUCTANCE         IFACE           CONDFACT        CELLGRP         
 ----------------------------------------------------------------------------------------------------------------
      1      3      1     13       38.00          0.1000E+05       6.000           0.000          -1.000    
      2      4      1     13       38.00          0.1000E+05       6.000           0.000          -1.000    
      3      5      1     12       38.00          0.1000E+05       6.000           0.000          -1.000    
      4      6      1     12       38.00          0.1000E+05       6.000           0.000          -1.000    
      5      7      1     12       38.00          0.1000E+05       6.000           0.000          -1.000    
      6      8      1     11       38.00          0.1000E+05       6.000           0.000          -1.000    
      7      9      1     11       38.00          0.1000E+05       6.000           0.000          -1.000    
      8     10      1     11       38.00          0.1000E+05       6.000           0.000          -1.000    
      9     11      1     10       38.00          0.1000E+05       6.000           0.000          -1.000    
     10     12      1     10       38.00          0.1000E+05       6.000           0.000          -1.000    
     11     13      1     10       38.00          0.1000E+05       6.000           0.000          -1.000    
     12     14      1      9       38.00          0.1000E+05       6.000           0.000          -1.000    
     13     15      1      9       38.00          0.1000E+05       6.000           0.000          -1.000    
     14     16      1      9       38.00          0.1000E+05       6.000           0.000          -1.000    
     15     17      1      8       38.00          0.1000E+05       6.000           0.000          -1.000    
     16     18      1      8       38.00          0.1000E+05       6.000           0.000          -1.000    
     17     19      1      8       38.00          0.1000E+05       6.000           0.000          -1.000    
     18     20      1      7       38.00          0.1000E+05       6.000           0.000          -1.000    
     19     21      1      7       38.00          0.1000E+05       6.000           0.000          -1.000    
     20     22      1      7       38.00          0.1000E+05       6.000           0.000          -1.000    
     21     23      1      6       38.00          0.1000E+05       6.000           0.000          -1.000    
     22     24      1      6       38.00          0.1000E+05       6.000           0.000          -1.000    
     23     25      1      6       38.00          0.1000E+05       6.000           0.000          -1.000    
     24     26      1      5       38.00          0.1000E+05       6.000           0.000          -1.000    
     25     27      1      5       38.00          0.1000E+05       6.000           0.000          -1.000    
     26     28      1      5       38.00          0.1000E+05       6.000           0.000          -1.000    
     27     29      1      4       38.00          0.1000E+05       6.000           0.000          -1.000    
     28     30      1      4       38.00          0.1000E+05       6.000           0.000          -1.000    
     29     31      1      4       38.00          0.1000E+05       6.000           0.000          -1.000    
     30     32      1      3       38.00          0.1000E+05       6.000           0.000          -1.000    
     31     33      1      3       38.00          0.1000E+05       6.000           0.000          -1.000    
     32     34      1      3       38.00          0.1000E+05       6.000           0.000          -1.000    
     33     35      1      2       38.00          0.1000E+05       6.000           0.000          -1.000    
     34     36      1      2       38.00          0.1000E+05       6.000           0.000          -1.000    
     35     37      1      2       38.00          0.1000E+05       6.000           0.000          -1.000    
     36     38      1      1       38.00          0.1000E+05       6.000           0.000          -1.000    
     37     39      1      1       38.00          0.1000E+05       6.000           0.000          -1.000    
     38     40      1      1       38.00          0.1000E+05       6.000           0.000          -1.000    

     38 GHB CELLS
 
 SOLVING FOR HEAD 

 CELL CONVERSIONS FOR ITER.=  1  LAYER=  1  STEP=  1  PERIOD=   1   (ROW,COL)
    DRY(  1, 14)   DRY(  1, 15)   DRY(  1, 16)   DRY(  1, 17)   DRY(  1, 18)   
    DRY(  1, 19)   DRY(  1, 20)   DRY(  1, 21)   DRY(  1, 22)   

 CELL CONVERSIONS FOR ITER.=  1  LAYER=  2  STEP=  1  PERIOD=   1   (ROW,COL)
    DRY(  1, 13)   DRY(  1, 14)   DRY(  1, 15)   DRY(  1, 16)   DRY(  1, 17)   
    DRY(  1, 18)   DRY(  1, 19)   DRY(  1, 20)   DRY(  1, 21)   DRY(  1, 22)   
    DRY(  1, 23)   DRY(  1, 24)   

 CELL CONVERSIONS FOR ITER.=  2  LAYER=  3  STEP=  1  PERIOD=   1   (ROW,COL)
    DRY(  1, 16)   DRY(  1, 18)   DRY(  1, 20)   DRY(  1, 21)   DRY(  1, 22)   
    DRY(  1, 23)   DRY(  1, 24)   DRY(  1, 25)   DRY(  1, 26)   

 CELL CONVERSIONS FOR ITER.=  2  LAYER=  4  STEP=  1  PERIOD=   1   (ROW,COL)
    DRY(  1, 23)   DRY(  1, 24)   DRY(  1, 25)   DRY(  1, 26)   DRY(  1, 27)   
    DRY(  1, 28)   

 CELL CONVERSIONS FOR ITER.=  2  LAYER=  5  STEP=  1  PERIOD=   1   (ROW,COL)
    DRY(  1, 28)   DRY(  1, 30)   

 CELL CONVERSIONS FOR ITER.=  2  LAYER=  6  STEP=  1  PERIOD=   1   (ROW,COL)
    DRY(  1, 32)   

 CELL CONVERSIONS FOR ITER.=  2  LAYER=  7  STEP=  1  PERIOD=   1   (ROW,COL)
    DRY(  1, 34)   

 CELL CONVERSIONS FOR ITER.=  2  LAYER=  9  STEP=  1  PERIOD=   1   (ROW,COL)
    DRY(  1, 38)   

 CELL CONVERSIONS FOR ITER.=  2  LAYER= 11  STEP=  1  PERIOD=   1   (ROW,COL)
    DRY(  1, 42)   

 CELL CONVERSIONS FOR ITER.=  3  LAYER=  3  STEP=  1  PERIOD=   1   (ROW,COL)
    DRY(  1, 19)   

 CELL CONVERSIONS FOR ITER.=  3  LAYER=  4  STEP=  1  PERIOD=   1   (ROW,COL)
    DRY(  1, 20)   DRY(  1, 21)   DRY(  1, 22)   

 CELL CONVERSIONS FOR ITER.=  3  LAYER=  5  STEP=  1  PERIOD=   1   (ROW,COL)
    DRY(  1, 22)   DRY(  1, 24)   DRY(  1, 26)   DRY(  1, 27)   DRY(  1, 29)   

 CELL CONVERSIONS FOR ITER.=  3  LAYER=  6  STEP=  1  PERIOD=   1   (ROW,COL)
    DRY(  1, 28)   DRY(  1, 29)   DRY(  1, 30)   DRY(  1, 31)   

 CELL CONVERSIONS FOR ITER.=  3  LAYER=  7  STEP=  1  PERIOD=   1   (ROW,COL)
    DRY(  1, 30)   DRY(  1, 32)   DRY(  1, 33)   

 CELL CONVERSIONS FOR ITER.=  3  LAYER=  8  STEP=  1  PERIOD=   1   (ROW,COL)
    DRY(  1, 35)   DRY(  1, 36)   

 CELL CONVERSIONS FOR ITER.=  3  LAYER=  9  STEP=  1  PERIOD=   1   (ROW,COL)
    DRY(  1, 36)   

 CELL CONVERSIONS FOR ITER.=  3  LAYER= 13  STEP=  1  PERIOD=   1   (ROW,COL)
    DRY(  1, 46)   

 CELL CONVERSIONS FOR ITER.=  3  LAYER= 15  STEP=  1  PERIOD=   1   (ROW,COL)
    DRY(  1, 50)   

 CELL CONVERSIONS FOR ITER.=  4  LAYER=  5  STEP=  1  PERIOD=   1   (ROW,COL)
    DRY(  1, 25)   

 CELL CONVERSIONS FOR ITER.=  4  LAYER=  6  STEP=  1  PERIOD=   1   (ROW,COL)
    DRY(  1, 27)   

 CELL CONVERSIONS FOR ITER.=  4  LAYER=  8  STEP=  1  PERIOD=   1   (ROW,COL)
    DRY(  1, 34)   

 CELL CONVERSIONS FOR ITER.=  4  LAYER= 10  STEP=  1  PERIOD=   1   (ROW,COL)
    DRY(  1, 40)   

 CELL CONVERSIONS FOR ITER.=  5  LAYER=  7  STEP=  1  PERIOD=   1   (ROW,COL)
    DRY(  1, 28)   

 CELL CONVERSIONS FOR ITER.=  5  LAYER=  8  STEP=  1  PERIOD=   1   (ROW,COL)
    DRY(  1, 33)   

 CELL CONVERSIONS FOR ITER.=  5  LAYER= 10  STEP=  1  PERIOD=   1   (ROW,COL)
    DRY(  1, 39)   

 CELL CONVERSIONS FOR ITER.=  5  LAYER= 17  STEP=  1  PERIOD=   1   (ROW,COL)
    DRY(  1, 54)   

 CELL CONVERSIONS FOR ITER.=  6  LAYER= 11  STEP=  1  PERIOD=   1   (ROW,COL)
    DRY(  1, 40)   

 CELL CONVERSIONS FOR ITER.=  7  LAYER=  8  STEP=  1  PERIOD=   1   (ROW,COL)
    WET(  1, 33)   

 CELL CONVERSIONS FOR ITER.=  7  LAYER=  9  STEP=  1  PERIOD=   1   (ROW,COL)
    DRY(  1, 34)   

 CELL CONVERSIONS FOR ITER.=  7  LAYER= 12  STEP=  1  PERIOD=   1   (ROW,COL)
    DRY(  1, 44)   

 OUTPUT CONTROL FOR STRESS PERIOD    1   TIME STEP    1
    PRINT BUDGET
    SAVE HEAD FOR ALL LAYERS
    SAVE DRAWDOWN FOR ALL LAYERS
    SAVE BUDGET
 UBDSV1 SAVING "         STORAGE" ON UNIT  40 AT TIME STEP  1, STRESS PERIOD   1
 UBDSV2 SAVING "   CONSTANT HEAD" ON UNIT  40 AT TIME STEP  1, STRESS PERIOD   1
 UBDSV1 SAVING "FLOW RIGHT FACE " ON UNIT  40 AT TIME STEP  1, STRESS PERIOD   1
 UBDSV1 SAVING "FLOW LOWER FACE " ON UNIT  40 AT TIME STEP  1, STRESS PERIOD   1
 UBDSV4 SAVING "          DRAINS" ON UNIT  40 AT TIME STEP  1, STRESS PERIOD   1
 UBDSV4 SAVING " HEAD DEP BOUNDS" ON UNIT  40 AT TIME STEP  1, STRESS PERIOD   1

 SAVING SATURATED THICKNESS AND FLOW TERMS ON UNIT  333 FOR MT3DMS
 BY THE LINK-MT3DMS PACKAGE V7 AT TIME STEP    1, STRESS PERIOD    1


 HEAD WILL BE SAVED ON UNIT    2 AT END OF TIME STEP    1, STRESS PERIOD    1

 DRAWDOWN WILL BE SAVED ON UNIT   13 AT END OF TIME STEP    1, STRESS PERIOD    1
1
  VOLUMETRIC BUDGET FOR ENTIRE MODEL AT END OF TIME STEP    1, STRESS PERIOD   1
  ------------------------------------------------------------------------------

     CUMULATIVE VOLUMES      L**3       RATES FOR THIS TIME STEP      L**3/T
     ------------------                 ------------------------

           IN:                                      IN:
           ---                                      ---
             STORAGE =           4.0493               STORAGE =           4.0493
       CONSTANT HEAD =           0.0000         CONSTANT HEAD =           0.0000
              DRAINS =           0.0000                DRAINS =           0.0000
     HEAD DEP BOUNDS =          28.4897       HEAD DEP BOUNDS =          28.4897

            TOTAL IN =          32.5390              TOTAL IN =          32.5390

          OUT:                                     OUT:
          ----                                     ----
             STORAGE =           0.0000               STORAGE =           0.0000
       CONSTANT HEAD =           0.0000         CONSTANT HEAD =           0.0000
              DRAINS =          32.5390                DRAINS =          32.5390
     HEAD DEP BOUNDS =           0.0000       HEAD DEP BOUNDS =           0.0000

           TOTAL OUT =          32.5390             TOTAL OUT =          32.5390

            IN - OUT =       5.4288E-10              IN - OUT =       5.4288E-10

 PERCENT DISCREPANCY =           0.00     PERCENT DISCREPANCY =           0.00






         TIME SUMMARY AT END OF TIME STEP    1 IN STRESS PERIOD    1
                    SECONDS     MINUTES      HOURS       DAYS        YEARS
                    -----------------------------------------------------------
   TIME STEP LENGTH  86400.      1440.0      24.000      1.0000     2.73785E-03
 STRESS PERIOD TIME  86400.      1440.0      24.000      1.0000     2.73785E-03
         TOTAL TIME  86400.      1440.0      24.000      1.0000     2.73785E-03
1
 
 SOLVING FOR HEAD 

 CELL CONVERSIONS FOR ITER.=  2  LAYER=  6  STEP=  2  PERIOD=   1   (ROW,COL)
    DRY(  1, 26)   

 CELL CONVERSIONS FOR ITER.=  2  LAYER=  7  STEP=  2  PERIOD=   1   (ROW,COL)
    DRY(  1, 31)   

 CELL CONVERSIONS FOR ITER.=  2  LAYER=  8  STEP=  2  PERIOD=   1   (ROW,COL)
    DRY(  1, 33)   

 CELL CONVERSIONS FOR ITER.=  2  LAYER=  9  STEP=  2  PERIOD=   1   (ROW,COL)
    DRY(  1, 37)   

 CELL CONVERSIONS FOR ITER.=  3  LAYER=  8  STEP=  2  PERIOD=   1   (ROW,COL)
    DRY(  1, 32)   

 CELL CONVERSIONS FOR ITER.=  3  LAYER= 10  STEP=  2  PERIOD=   1   (ROW,COL)
    DRY(  1, 38)   

 CELL CONVERSIONS FOR ITER.=  3  LAYER= 19  STEP=  2  PERIOD=   1   (ROW,COL)
    DRY(  1, 58)   

 OUTPUT CONTROL FOR STRESS PERIOD    1   TIME STEP    2
    PRINT BUDGET
    SAVE HEAD FOR ALL LAYERS
    SAVE DRAWDOWN FOR ALL LAYERS
    SAVE BUDGET
 UBDSV1 SAVING "         STORAGE" ON UNIT  40 AT TIME STEP  2, STRESS PERIOD   1
 UBDSV2 SAVING "   CONSTANT HEAD" ON UNIT  40 AT TIME STEP  2, STRESS PERIOD   1
 UBDSV1 SAVING "FLOW RIGHT FACE " ON UNIT  40 AT TIME STEP  2, STRESS PERIOD   1
 UBDSV1 SAVING "FLOW LOWER FACE " ON UNIT  40 AT TIME STEP  2, STRESS PERIOD   1
 UBDSV4 SAVING "          DRAINS" ON UNIT  40 AT TIME STEP  2, STRESS PERIOD   1
 UBDSV4 SAVING " HEAD DEP BOUNDS" ON UNIT  40 AT TIME STEP  2, STRESS PERIOD   1

 SAVING SATURATED THICKNESS AND FLOW TERMS ON UNIT  333 FOR MT3DMS
 BY THE LINK-MT3DMS PACKAGE V7 AT TIME STEP    2, STRESS PERIOD    1


 HEAD WILL BE SAVED ON UNIT    2 AT END OF TIME STEP    2, STRESS PERIOD    1

 DRAWDOWN WILL BE SAVED ON UNIT   13 AT END OF TIME STEP    2, STRESS PERIOD    1
1
  VOLUMETRIC BUDGET FOR ENTIRE MODEL AT END OF TIME STEP    2, STRESS PERIOD   1
  ------------------------------------------------------------------------------

     CUMULATIVE VOLUMES      L**3       RATES FOR THIS TIME STEP      L**3/T
     ------------------                 ------------------------

           IN:                                      IN:
           ---                                      ---
             STORAGE =           4.6312               STORAGE =           0.5819
       CONSTANT HEAD =           0.0000         CONSTANT HEAD =           0.0000
              DRAINS =           0.0000                DRAINS =           0.0000
     HEAD DEP BOUNDS =          58.1108       HEAD DEP BOUNDS =          29.6211

            TOTAL IN =          62.7420              TOTAL IN =          30.2030

          OUT:                                     OUT:
          ----                                     ----
             STORAGE =       2.7713E-06               STORAGE =       2.7713E-06
       CONSTANT HEAD =           0.0000         CONSTANT HEAD =           0.0000
              DRAINS =          62.7420                DRAINS =          30.2030
     HEAD DEP BOUNDS =           0.0000       HEAD DEP BOUNDS =           0.0000

           TOTAL OUT =          62.7420             TOTAL OUT =          30.2030

            IN - OUT =       3.4384E-10              IN - OUT =      -1.9903E-10

 PERCENT DISCREPANCY =           0.00     PERCENT DISCREPANCY =          -0.00






         TIME SUMMARY AT END OF TIME STEP    2 IN STRESS PERIOD    1
                    SECONDS     MINUTES      HOURS       DAYS        YEARS
                    -----------------------------------------------------------
   TIME STEP LENGTH  86400.      1440.0      24.000      1.0000     2.73785E-03
 STRESS PERIOD TIME 1.72800E+05  2880.0      48.000      2.0000     5.47570E-03
         TOTAL TIME 1.72800E+05  2880.0      48.000      2.0000     5.47570E-03
1
 
 SOLVING FOR HEAD 

 OUTPUT CONTROL FOR STRESS PERIOD    1   TIME STEP    3
    PRINT BUDGET
    SAVE HEAD FOR ALL LAYERS
    SAVE DRAWDOWN FOR ALL LAYERS
    SAVE BUDGET
 UBDSV1 SAVING "         STORAGE" ON UNIT  40 AT TIME STEP  3, STRESS PERIOD   1
 UBDSV2 SAVING "   CONSTANT HEAD" ON UNIT  40 AT TIME STEP  3, STRESS PERIOD   1
 UBDSV1 SAVING "FLOW RIGHT FACE " ON UNIT  40 AT TIME STEP  3, STRESS PERIOD   1
 UBDSV1 SAVING "FLOW LOWER FACE " ON UNIT  40 AT TIME STEP  3, STRESS PERIOD   1
 UBDSV4 SAVING "          DRAINS" ON UNIT  40 AT TIME STEP  3, STRESS PERIOD   1
 UBDSV4 SAVING " HEAD DEP BOUNDS" ON UNIT  40 AT TIME STEP  3, STRESS PERIOD   1

 SAVING SATURATED THICKNESS AND FLOW TERMS ON UNIT  333 FOR MT3DMS
 BY THE LINK-MT3DMS PACKAGE V7 AT TIME STEP    3, STRESS PERIOD    1


 HEAD WILL BE SAVED ON UNIT    2 AT END OF TIME STEP    3, STRESS PERIOD    1

 DRAWDOWN WILL BE SAVED ON UNIT   13 AT END OF TIME STEP    3, STRESS PERIOD    1
1
  VOLUMETRIC BUDGET FOR ENTIRE MODEL AT END OF TIME STEP    3, STRESS PERIOD   1
  ------------------------------------------------------------------------------

     CUMULATIVE VOLUMES      L**3       RATES FOR THIS TIME STEP      L**3/T
     ------------------                 ------------------------

           IN:                                      IN:
           ---                                      ---
             STORAGE =           4.7733               STORAGE =           0.1421
       CONSTANT HEAD =           0.0000         CONSTANT HEAD =           0.0000
              DRAINS =           0.0000                DRAINS =           0.0000
     HEAD DEP BOUNDS =          87.9226       HEAD DEP BOUNDS =          29.8118

            TOTAL IN =          92.6959              TOTAL IN =          29.9539

          OUT:                                     OUT:
          ----                                     ----
             STORAGE =       2.8604E-06               STORAGE =       8.9101E-08
       CONSTANT HEAD =           0.0000         CONSTANT HEAD =           0.0000
              DRAINS =          92.6959                DRAINS =          29.9539
     HEAD DEP BOUNDS =           0.0000       HEAD DEP BOUNDS =           0.0000

           TOTAL OUT =          92.6959             TOTAL OUT =          29.9539

            IN - OUT =      -2.6485E-10              IN - OUT =      -6.0869E-10

 PERCENT DISCREPANCY =          -0.00     PERCENT DISCREPANCY =          -0.00






         TIME SUMMARY AT END OF TIME STEP    3 IN STRESS PERIOD    1
                    SECONDS     MINUTES      HOURS       DAYS        YEARS
                    -----------------------------------------------------------
   TIME STEP LENGTH  86400.      1440.0      24.000      1.0000     2.73785E-03
 STRESS PERIOD TIME 2.59200E+05  4320.0      72.000      3.0000     8.21355E-03
         TOTAL TIME 2.59200E+05  4320.0      72.000      3.0000     8.21355E-03
1
 
 SOLVING FOR HEAD 

 OUTPUT CONTROL FOR STRESS PERIOD    1   TIME STEP    4
    PRINT BUDGET
    SAVE HEAD FOR ALL LAYERS
    SAVE DRAWDOWN FOR ALL LAYERS
    SAVE BUDGET
 UBDSV1 SAVING "         STORAGE" ON UNIT  40 AT TIME STEP  4, STRESS PERIOD   1
 UBDSV2 SAVING "   CONSTANT HEAD" ON UNIT  40 AT TIME STEP  4, STRESS PERIOD   1
 UBDSV1 SAVING "FLOW RIGHT FACE " ON UNIT  40 AT TIME STEP  4, STRESS PERIOD   1
 UBDSV1 SAVING "FLOW LOWER FACE " ON UNIT  40 AT TIME STEP  4, STRESS PERIOD   1
 UBDSV4 SAVING "          DRAINS" ON UNIT  40 AT TIME STEP  4, STRESS PERIOD   1
 UBDSV4 SAVING " HEAD DEP BOUNDS" ON UNIT  40 AT TIME STEP  4, STRESS PERIOD   1

 SAVING SATURATED THICKNESS AND FLOW TERMS ON UNIT  333 FOR MT3DMS
 BY THE LINK-MT3DMS PACKAGE V7 AT TIME STEP    4, STRESS PERIOD    1


 HEAD WILL BE SAVED ON UNIT    2 AT END OF TIME STEP    4, STRESS PERIOD    1

 DRAWDOWN WILL BE SAVED ON UNIT   13 AT END OF TIME STEP    4, STRESS PERIOD    1
1
  VOLUMETRIC BUDGET FOR ENTIRE MODEL AT END OF TIME STEP    4, STRESS PERIOD   1
  ------------------------------------------------------------------------------

     CUMULATIVE VOLUMES      L**3       RATES FOR THIS TIME STEP      L**3/T
     ------------------                 ------------------------

           IN:                                      IN:
           ---                                      ---
             STORAGE =           4.8100               STORAGE =       3.6744E-02
       CONSTANT HEAD =           0.0000         CONSTANT HEAD =           0.0000
              DRAINS =           0.0000                DRAINS =           0.0000
     HEAD DEP BOUNDS =         117.7808       HEAD DEP BOUNDS =          29.8581

            TOTAL IN =         122.5908              TOTAL IN =          29.8949

          OUT:                                     OUT:
          ----                                     ----
             STORAGE =       2.8796E-06               STORAGE =       1.9169E-08
       CONSTANT HEAD =           0.0000         CONSTANT HEAD =           0.0000
              DRAINS =         122.5908                DRAINS =          29.8949
     HEAD DEP BOUNDS =           0.0000       HEAD DEP BOUNDS =           0.0000

           TOTAL OUT =         122.5908             TOTAL OUT =          29.8949

            IN - OUT =      -1.6026E-10              IN - OUT =       1.0460E-10

 PERCENT DISCREPANCY =          -0.00     PERCENT DISCREPANCY =           0.00






         TIME SUMMARY AT END OF TIME STEP    4 IN STRESS PERIOD    1
                    SECONDS     MINUTES      HOURS       DAYS        YEARS
                    -----------------------------------------------------------
   TIME STEP LENGTH  86400.      1440.0      24.000      1.0000     2.73785E-03
 STRESS PERIOD TIME 3.45600E+05  5760.0      96.000      4.0000     1.09514E-02
         TOTAL TIME 3.45600E+05  5760.0      96.000      4.0000     1.09514E-02
1
 
 SOLVING FOR HEAD 

 OUTPUT CONTROL FOR STRESS PERIOD    1   TIME STEP    5
    PRINT BUDGET
    SAVE HEAD FOR ALL LAYERS
    SAVE DRAWDOWN FOR ALL LAYERS
    SAVE BUDGET
 UBDSV1 SAVING "         STORAGE" ON UNIT  40 AT TIME STEP  5, STRESS PERIOD   1
 UBDSV2 SAVING "   CONSTANT HEAD" ON UNIT  40 AT TIME STEP  5, STRESS PERIOD   1
 UBDSV1 SAVING "FLOW RIGHT FACE " ON UNIT  40 AT TIME STEP  5, STRESS PERIOD   1
 UBDSV1 SAVING "FLOW LOWER FACE " ON UNIT  40 AT TIME STEP  5, STRESS PERIOD   1
 UBDSV4 SAVING "          DRAINS" ON UNIT  40 AT TIME STEP  5, STRESS PERIOD   1
 UBDSV4 SAVING " HEAD DEP BOUNDS" ON UNIT  40 AT TIME STEP  5, STRESS PERIOD   1

 SAVING SATURATED THICKNESS AND FLOW TERMS ON UNIT  333 FOR MT3DMS
 BY THE LINK-MT3DMS PACKAGE V7 AT TIME STEP    5, STRESS PERIOD    1


 HEAD WILL BE SAVED ON UNIT    2 AT END OF TIME STEP    5, STRESS PERIOD    1

 DRAWDOWN WILL BE SAVED ON UNIT   13 AT END OF TIME STEP    5, STRESS PERIOD    1
1
  VOLUMETRIC BUDGET FOR ENTIRE MODEL AT END OF TIME STEP    5, STRESS PERIOD   1
  ------------------------------------------------------------------------------

     CUMULATIVE VOLUMES      L**3       RATES FOR THIS TIME STEP      L**3/T
     ------------------                 ------------------------

           IN:                                      IN:
           ---                                      ---
             STORAGE =           4.8196               STORAGE =       9.5769E-03
       CONSTANT HEAD =           0.0000         CONSTANT HEAD =           0.0000
              DRAINS =           0.0000                DRAINS =           0.0000
     HEAD DEP BOUNDS =         147.6507       HEAD DEP BOUNDS =          29.8699

            TOTAL IN =         152.4702              TOTAL IN =          29.8795

          OUT:                                     OUT:
          ----                                     ----
             STORAGE =       2.8841E-06               STORAGE =       4.5036E-09
       CONSTANT HEAD =           0.0000         CONSTANT HEAD =           0.0000
              DRAINS =         152.4702                DRAINS =          29.8795
     HEAD DEP BOUNDS =           0.0000       HEAD DEP BOUNDS =           0.0000

           TOTAL OUT =         152.4702             TOTAL OUT =          29.8795

            IN - OUT =      -3.6526E-09              IN - OUT =      -3.4924E-09

 PERCENT DISCREPANCY =          -0.00     PERCENT DISCREPANCY =          -0.00






         TIME SUMMARY AT END OF TIME STEP    5 IN STRESS PERIOD    1
                    SECONDS     MINUTES      HOURS       DAYS        YEARS
                    -----------------------------------------------------------
   TIME STEP LENGTH  86400.      1440.0      24.000      1.0000     2.73785E-03
 STRESS PERIOD TIME 4.32000E+05  7200.0      120.00      5.0000     1.36893E-02
         TOTAL TIME 4.32000E+05  7200.0      120.00      5.0000     1.36893E-02
1
 
 SOLVING FOR HEAD 

 OUTPUT CONTROL FOR STRESS PERIOD    1   TIME STEP    6
    PRINT BUDGET
    SAVE HEAD FOR ALL LAYERS
    SAVE DRAWDOWN FOR ALL LAYERS
    SAVE BUDGET
 UBDSV1 SAVING "         STORAGE" ON UNIT  40 AT TIME STEP  6, STRESS PERIOD   1
 UBDSV2 SAVING "   CONSTANT HEAD" ON UNIT  40 AT TIME STEP  6, STRESS PERIOD   1
 UBDSV1 SAVING "FLOW RIGHT FACE " ON UNIT  40 AT TIME STEP  6, STRESS PERIOD   1
 UBDSV1 SAVING "FLOW LOWER FACE " ON UNIT  40 AT TIME STEP  6, STRESS PERIOD   1
 UBDSV4 SAVING "          DRAINS" ON UNIT  40 AT TIME STEP  6, STRESS PERIOD   1
 UBDSV4 SAVING " HEAD DEP BOUNDS" ON UNIT  40 AT TIME STEP  6, STRESS PERIOD   1

 SAVING SATURATED THICKNESS AND FLOW TERMS ON UNIT  333 FOR MT3DMS
 BY THE LINK-MT3DMS PACKAGE V7 AT TIME STEP    6, STRESS PERIOD    1


 HEAD WILL BE SAVED ON UNIT    2 AT END OF TIME STEP    6, STRESS PERIOD    1

 DRAWDOWN WILL BE SAVED ON UNIT   13 AT END OF TIME STEP    6, STRESS PERIOD    1
1
  VOLUMETRIC BUDGET FOR ENTIRE MODEL AT END OF TIME STEP    6, STRESS PERIOD   1
  ------------------------------------------------------------------------------

     CUMULATIVE VOLUMES      L**3       RATES FOR THIS TIME STEP      L**3/T
     ------------------                 ------------------------

           IN:                                      IN:
           ---                                      ---
             STORAGE =           4.8221               STORAGE =       2.4953E-03
       CONSTANT HEAD =           0.0000         CONSTANT HEAD =           0.0000
              DRAINS =           0.0000                DRAINS =           0.0000
     HEAD DEP BOUNDS =         177.5236       HEAD DEP BOUNDS =          29.8729

            TOTAL IN =         182.3457              TOTAL IN =          29.8754

          OUT:                                     OUT:
          ----                                     ----
             STORAGE =       2.8852E-06               STORAGE =       1.1370E-09
       CONSTANT HEAD =           0.0000         CONSTANT HEAD =           0.0000
              DRAINS =         182.3457                DRAINS =          29.8754
     HEAD DEP BOUNDS =           0.0000       HEAD DEP BOUNDS =           0.0000

           TOTAL OUT =         182.3457             TOTAL OUT =          29.8754

            IN - OUT =      -4.3778E-07              IN - OUT =      -4.3413E-07

 PERCENT DISCREPANCY =          -0.00     PERCENT DISCREPANCY =          -0.00






         TIME SUMMARY AT END OF TIME STEP    6 IN STRESS PERIOD    1
                    SECONDS     MINUTES      HOURS       DAYS        YEARS
                    -----------------------------------------------------------
   TIME STEP LENGTH  86400.      1440.0      24.000      1.0000     2.73785E-03
 STRESS PERIOD TIME 5.18400E+05  8640.0      144.00      6.0000     1.64271E-02
         TOTAL TIME 5.18400E+05  8640.0      144.00      6.0000     1.64271E-02
1
 
 SOLVING FOR HEAD 

 OUTPUT CONTROL FOR STRESS PERIOD    1   TIME STEP    7
    PRINT BUDGET
    SAVE HEAD FOR ALL LAYERS
    SAVE DRAWDOWN FOR ALL LAYERS
    SAVE BUDGET
 UBDSV1 SAVING "         STORAGE" ON UNIT  40 AT TIME STEP  7, STRESS PERIOD   1
 UBDSV2 SAVING "   CONSTANT HEAD" ON UNIT  40 AT TIME STEP  7, STRESS PERIOD   1
 UBDSV1 SAVING "FLOW RIGHT FACE " ON UNIT  40 AT TIME STEP  7, STRESS PERIOD   1
 UBDSV1 SAVING "FLOW LOWER FACE " ON UNIT  40 AT TIME STEP  7, STRESS PERIOD   1
 UBDSV4 SAVING "          DRAINS" ON UNIT  40 AT TIME STEP  7, STRESS PERIOD   1
 UBDSV4 SAVING " HEAD DEP BOUNDS" ON UNIT  40 AT TIME STEP  7, STRESS PERIOD   1

 SAVING SATURATED THICKNESS AND FLOW TERMS ON UNIT  333 FOR MT3DMS
 BY THE LINK-MT3DMS PACKAGE V7 AT TIME STEP    7, STRESS PERIOD    1


 HEAD WILL BE SAVED ON UNIT    2 AT END OF TIME STEP    7, STRESS PERIOD    1

 DRAWDOWN WILL BE SAVED ON UNIT   13 AT END OF TIME STEP    7, STRESS PERIOD    1
1
  VOLUMETRIC BUDGET FOR ENTIRE MODEL AT END OF TIME STEP    7, STRESS PERIOD   1
  ------------------------------------------------------------------------------

     CUMULATIVE VOLUMES      L**3       RATES FOR THIS TIME STEP      L**3/T
     ------------------                 ------------------------

           IN:                                      IN:
           ---                                      ---
             STORAGE =           4.8227               STORAGE =       6.4687E-04
       CONSTANT HEAD =           0.0000         CONSTANT HEAD =           0.0000
              DRAINS =           0.0000                DRAINS =           0.0000
     HEAD DEP BOUNDS =         207.3973       HEAD DEP BOUNDS =          29.8737

            TOTAL IN =         212.2200              TOTAL IN =          29.8744

          OUT:                                     OUT:
          ----                                     ----
             STORAGE =       2.8855E-06               STORAGE =       2.6841E-10
       CONSTANT HEAD =           0.0000         CONSTANT HEAD =           0.0000
              DRAINS =         212.2200                DRAINS =          29.8744
     HEAD DEP BOUNDS =           0.0000       HEAD DEP BOUNDS =           0.0000

           TOTAL OUT =         212.2200             TOTAL OUT =          29.8744

            IN - OUT =      -1.7200E-05              IN - OUT =      -1.6762E-05

 PERCENT DISCREPANCY =          -0.00     PERCENT DISCREPANCY =          -0.00






         TIME SUMMARY AT END OF TIME STEP    7 IN STRESS PERIOD    1
                    SECONDS     MINUTES      HOURS       DAYS        YEARS
                    -----------------------------------------------------------
   TIME STEP LENGTH  86400.      1440.0      24.000      1.0000     2.73785E-03
 STRESS PERIOD TIME 6.04800E+05  10080.      168.00      7.0000     1.91650E-02
         TOTAL TIME 6.04800E+05  10080.      168.00      7.0000     1.91650E-02
1
 
 SOLVING FOR HEAD 

 OUTPUT CONTROL FOR STRESS PERIOD    1   TIME STEP    8
    PRINT BUDGET
    SAVE HEAD FOR ALL LAYERS
    SAVE DRAWDOWN FOR ALL LAYERS
    SAVE BUDGET
 UBDSV1 SAVING "         STORAGE" ON UNIT  40 AT TIME STEP  8, STRESS PERIOD   1
 UBDSV2 SAVING "   CONSTANT HEAD" ON UNIT  40 AT TIME STEP  8, STRESS PERIOD   1
 UBDSV1 SAVING "FLOW RIGHT FACE " ON UNIT  40 AT TIME STEP  8, STRESS PERIOD   1
 UBDSV1 SAVING "FLOW LOWER FACE " ON UNIT  40 AT TIME STEP  8, STRESS PERIOD   1
 UBDSV4 SAVING "          DRAINS" ON UNIT  40 AT TIME STEP  8, STRESS PERIOD   1
 UBDSV4 SAVING " HEAD DEP BOUNDS" ON UNIT  40 AT TIME STEP  8, STRESS PERIOD   1

 SAVING SATURATED THICKNESS AND FLOW TERMS ON UNIT  333 FOR MT3DMS
 BY THE LINK-MT3DMS PACKAGE V7 AT TIME STEP    8, STRESS PERIOD    1


 HEAD WILL BE SAVED ON UNIT    2 AT END OF TIME STEP    8, STRESS PERIOD    1

 DRAWDOWN WILL BE SAVED ON UNIT   13 AT END OF TIME STEP    8, STRESS PERIOD    1
1
  VOLUMETRIC BUDGET FOR ENTIRE MODEL AT END OF TIME STEP    8, STRESS PERIOD   1
  ------------------------------------------------------------------------------

     CUMULATIVE VOLUMES      L**3       RATES FOR THIS TIME STEP      L**3/T
     ------------------                 ------------------------

           IN:                                      IN:
           ---                                      ---
             STORAGE =           4.8228               STORAGE =       6.4072E-05
       CONSTANT HEAD =           0.0000         CONSTANT HEAD =           0.0000
              DRAINS =           0.0000                DRAINS =           0.0000
     HEAD DEP BOUNDS =         237.2710       HEAD DEP BOUNDS =          29.8737

            TOTAL IN =         242.0938              TOTAL IN =          29.8738

          OUT:                                     OUT:
          ----                                     ----
             STORAGE =       2.8885E-06               STORAGE =       2.9738E-09
       CONSTANT HEAD =           0.0000         CONSTANT HEAD =           0.0000
              DRAINS =         242.0944                DRAINS =          29.8743
     HEAD DEP BOUNDS =           0.0000       HEAD DEP BOUNDS =           0.0000

           TOTAL OUT =         242.0944             TOTAL OUT =          29.8743

            IN - OUT =      -5.6254E-04              IN - OUT =      -5.4534E-04

 PERCENT DISCREPANCY =          -0.00     PERCENT DISCREPANCY =          -0.00






         TIME SUMMARY AT END OF TIME STEP    8 IN STRESS PERIOD    1
                    SECONDS     MINUTES      HOURS       DAYS        YEARS
                    -----------------------------------------------------------
   TIME STEP LENGTH  86400.      1440.0      24.000      1.0000     2.73785E-03
 STRESS PERIOD TIME 6.91200E+05  11520.      192.00      8.0000     2.19028E-02
         TOTAL TIME 6.91200E+05  11520.      192.00      8.0000     2.19028E-02
1
 
 SOLVING FOR HEAD 

 OUTPUT CONTROL FOR STRESS PERIOD    1   TIME STEP    9
    PRINT BUDGET
    SAVE HEAD FOR ALL LAYERS
    SAVE DRAWDOWN FOR ALL LAYERS
    SAVE BUDGET
 UBDSV1 SAVING "         STORAGE" ON UNIT  40 AT TIME STEP  9, STRESS PERIOD   1
 UBDSV2 SAVING "   CONSTANT HEAD" ON UNIT  40 AT TIME STEP  9, STRESS PERIOD   1
 UBDSV1 SAVING "FLOW RIGHT FACE " ON UNIT  40 AT TIME STEP  9, STRESS PERIOD   1
 UBDSV1 SAVING "FLOW LOWER FACE " ON UNIT  40 AT TIME STEP  9, STRESS PERIOD   1
 UBDSV4 SAVING "          DRAINS" ON UNIT  40 AT TIME STEP  9, STRESS PERIOD   1
 UBDSV4 SAVING " HEAD DEP BOUNDS" ON UNIT  40 AT TIME STEP  9, STRESS PERIOD   1

 SAVING SATURATED THICKNESS AND FLOW TERMS ON UNIT  333 FOR MT3DMS
 BY THE LINK-MT3DMS PACKAGE V7 AT TIME STEP    9, STRESS PERIOD    1


 HEAD WILL BE SAVED ON UNIT    2 AT END OF TIME STEP    9, STRESS PERIOD    1

 DRAWDOWN WILL BE SAVED ON UNIT   13 AT END OF TIME STEP    9, STRESS PERIOD    1
1
  VOLUMETRIC BUDGET FOR ENTIRE MODEL AT END OF TIME STEP    9, STRESS PERIOD   1
  ------------------------------------------------------------------------------

     CUMULATIVE VOLUMES      L**3       RATES FOR THIS TIME STEP      L**3/T
     ------------------                 ------------------------

           IN:                                      IN:
           ---                                      ---
             STORAGE =           4.8229               STORAGE =       1.1992E-04
       CONSTANT HEAD =           0.0000         CONSTANT HEAD =           0.0000
              DRAINS =           0.0000                DRAINS =           0.0000
     HEAD DEP BOUNDS =         267.1449       HEAD DEP BOUNDS =          29.8739

            TOTAL IN =         271.9678              TOTAL IN =          29.8740

          OUT:                                     OUT:
          ----                                     ----
             STORAGE =       2.8957E-06               STORAGE =       7.2516E-09
       CONSTANT HEAD =           0.0000         CONSTANT HEAD =           0.0000
              DRAINS =         271.9685                DRAINS =          29.8741
     HEAD DEP BOUNDS =           0.0000       HEAD DEP BOUNDS =           0.0000

           TOTAL OUT =         271.9685             TOTAL OUT =          29.8741

            IN - OUT =      -6.3457E-04              IN - OUT =      -7.2036E-05

 PERCENT DISCREPANCY =          -0.00     PERCENT DISCREPANCY =          -0.00






         TIME SUMMARY AT END OF TIME STEP    9 IN STRESS PERIOD    1
                    SECONDS     MINUTES      HOURS       DAYS        YEARS
                    -----------------------------------------------------------
   TIME STEP LENGTH  86400.      1440.0      24.000      1.0000     2.73785E-03
 STRESS PERIOD TIME 7.77600E+05  12960.      216.00      9.0000     2.46407E-02
         TOTAL TIME 7.77600E+05  12960.      216.00      9.0000     2.46407E-02
1
 
 SOLVING FOR HEAD 

 OUTPUT CONTROL FOR STRESS PERIOD    1   TIME STEP   10
    PRINT BUDGET
    SAVE HEAD FOR ALL LAYERS
    SAVE DRAWDOWN FOR ALL LAYERS
    SAVE BUDGET
 UBDSV1 SAVING "         STORAGE" ON UNIT  40 AT TIME STEP 10, STRESS PERIOD   1
 UBDSV2 SAVING "   CONSTANT HEAD" ON UNIT  40 AT TIME STEP 10, STRESS PERIOD   1
 UBDSV1 SAVING "FLOW RIGHT FACE " ON UNIT  40 AT TIME STEP 10, STRESS PERIOD   1
 UBDSV1 SAVING "FLOW LOWER FACE " ON UNIT  40 AT TIME STEP 10, STRESS PERIOD   1
 UBDSV4 SAVING "          DRAINS" ON UNIT  40 AT TIME STEP 10, STRESS PERIOD   1
 UBDSV4 SAVING " HEAD DEP BOUNDS" ON UNIT  40 AT TIME STEP 10, STRESS PERIOD   1

 SAVING SATURATED THICKNESS AND FLOW TERMS ON UNIT  333 FOR MT3DMS
 BY THE LINK-MT3DMS PACKAGE V7 AT TIME STEP   10, STRESS PERIOD    1


 HEAD WILL BE SAVED ON UNIT    2 AT END OF TIME STEP   10, STRESS PERIOD    1

 DRAWDOWN WILL BE SAVED ON UNIT   13 AT END OF TIME STEP   10, STRESS PERIOD    1
1
  VOLUMETRIC BUDGET FOR ENTIRE MODEL AT END OF TIME STEP   10, STRESS PERIOD   1
  ------------------------------------------------------------------------------

     CUMULATIVE VOLUMES      L**3       RATES FOR THIS TIME STEP      L**3/T
     ------------------                 ------------------------

           IN:                                      IN:
           ---                                      ---
             STORAGE =           4.8229               STORAGE =       1.0431E-05
       CONSTANT HEAD =           0.0000         CONSTANT HEAD =           0.0000
              DRAINS =           0.0000                DRAINS =           0.0000
     HEAD DEP BOUNDS =         297.0188       HEAD DEP BOUNDS =          29.8739

            TOTAL IN =         301.8418              TOTAL IN =          29.8739

          OUT:                                     OUT:
          ----                                     ----
             STORAGE =       2.9051E-06               STORAGE =       9.3897E-09
       CONSTANT HEAD =           0.0000         CONSTANT HEAD =           0.0000
              DRAINS =         301.8426                DRAINS =          29.8741
     HEAD DEP BOUNDS =           0.0000       HEAD DEP BOUNDS =           0.0000

           TOTAL OUT =         301.8426             TOTAL OUT =          29.8741

            IN - OUT =      -8.0028E-04              IN - OUT =      -1.6571E-04

 PERCENT DISCREPANCY =          -0.00     PERCENT DISCREPANCY =          -0.00






         TIME SUMMARY AT END OF TIME STEP   10 IN STRESS PERIOD    1
                    SECONDS     MINUTES      HOURS       DAYS        YEARS
                    -----------------------------------------------------------
   TIME STEP LENGTH  86400.      1440.0      24.000      1.0000     2.73785E-03
 STRESS PERIOD TIME 8.64000E+05  14400.      240.00      10.000     2.73785E-02
         TOTAL TIME 8.64000E+05  14400.      240.00      10.000     2.73785E-02
1
1
                            STRESS PERIOD NO.    2, LENGTH =   10.00000    
                            -----------------------------------------------

                              NUMBER OF TIME STEPS =    10

                               MULTIPLIER FOR DELT =     1.000

                            INITIAL TIME STEP SIZE =   1.000000    

 REUSING NON-PARAMETER DRAINS FROM LAST STRESS PERIOD

     75 DRAINS

 BOUND. NO. LAYER   ROW   COL     STAGE      CONDUCTANCE         IFACE           CONDFACT        CELLGRP         
 ----------------------------------------------------------------------------------------------------------------
      1      3      1     13       38.00           0.000           6.000           0.000          -1.000    
      2      4      1     13       38.00           0.000           6.000           0.000          -1.000    
      3      5      1     12       38.00           0.000           6.000           0.000          -1.000    
      4      6      1     12       38.00           0.000           6.000           0.000          -1.000    
      5      7      1     12       38.00           0.000           6.000           0.000          -1.000    
      6      8      1     11       38.00           0.000           6.000           0.000          -1.000    
      7      9      1     11       38.00           0.000           6.000           0.000          -1.000    
      8     10      1     11       38.00           0.000           6.000           0.000          -1.000    
      9     11      1     10       38.00           0.000           6.000           0.000          -1.000    
     10     12      1     10       38.00           0.000           6.000           0.000          -1.000    
     11     13      1     10       38.00           0.000           6.000           0.000          -1.000    
     12     14      1      9       38.00           0.000           6.000           0.000          -1.000    
     13     15      1      9       38.00           0.000           6.000           0.000          -1.000    
     14     16      1      9       38.00           0.000           6.000           0.000          -1.000    
     15     17      1      8       38.00           0.000           6.000           0.000          -1.000    
     16     18      1      8       38.00           0.000           6.000           0.000          -1.000    
     17     19      1      8       22.00          0.1000E+05       6.000           0.000          -1.000    
     18     20      1      7       22.00          0.1000E+05       6.000           0.000          -1.000    
     19     21      1      7       22.00          0.1000E+05       6.000           0.000          -1.000    
     20     22      1      7       22.00          0.1000E+05       6.000           0.000          -1.000    
     21     23      1      6       22.00          0.1000E+05       6.000           0.000          -1.000    
     22     24      1      6       22.00          0.1000E+05       6.000           0.000          -1.000    
     23     25      1      6       22.00          0.1000E+05       6.000           0.000          -1.000    
     24     26      1      5       22.00          0.1000E+05       6.000           0.000          -1.000    
     25     27      1      5       22.00          0.1000E+05       6.000           0.000          -1.000    
     26     28      1      5       22.00          0.1000E+05       6.000           0.000          -1.000    
     27     29      1      4       22.00          0.1000E+05       6.000           0.000          -1.000    
     28     30      1      4       22.00          0.1000E+05       6.000           0.000          -1.000    
     29     31      1      4       22.00          0.1000E+05       6.000           0.000          -1.000    
     30     32      1      3       22.00          0.1000E+05       6.000           0.000          -1.000    
     31     33      1      3       22.00          0.1000E+05       6.000           0.000          -1.000    
     32     34      1      3       22.00          0.1000E+05       6.000           0.000          -1.000    
     33     35      1      2       22.00          0.1000E+05       6.000           0.000          -1.000    
     34     36      1      2       22.00          0.1000E+05       6.000           0.000          -1.000    
     35     37      1      2       22.00          0.1000E+05       6.000           0.000          -1.000    
     36     38      1      1       22.00          0.1000E+05       6.000           0.000          -1.000    
     37     39      1      1       22.00          0.1000E+05       6.000           0.000          -1.000    
     38     40      1      1       22.00          0.1000E+05       6.000           0.000          -1.000    

     38 GHB CELLS
 
 SOLVING FOR HEAD 

 CELL CONVERSIONS FOR ITER.=  2  LAYER=  3  STEP=  1  PERIOD=   2   (ROW,COL)
    DRY(  1, 13)   DRY(  1, 14)   DRY(  1, 15)   DRY(  1, 17)   

 CELL CONVERSIONS FOR ITER.=  2  LAYER=  4  STEP=  1  PERIOD=   2   (ROW,COL)
    DRY(  1, 13)   DRY(  1, 14)   DRY(  1, 15)   DRY(  1, 16)   DRY(  1, 17)   
    DRY(  1, 18)   DRY(  1, 19)   

 CELL CONVERSIONS FOR ITER.=  2  LAYER=  5  STEP=  1  PERIOD=   2   (ROW,COL)
    DRY(  1, 12)   DRY(  1, 13)   DRY(  1, 14)   DRY(  1, 15)   DRY(  1, 16)   
    DRY(  1, 17)   DRY(  1, 18)   DRY(  1, 19)   DRY(  1, 20)   DRY(  1, 21)   
    DRY(  1, 23)   

 CELL CONVERSIONS FOR ITER.=  2  LAYER=  6  STEP=  1  PERIOD=   2   (ROW,COL)
    DRY(  1, 12)   DRY(  1, 13)   DRY(  1, 14)   DRY(  1, 15)   DRY(  1, 16)   
    DRY(  1, 17)   DRY(  1, 18)   DRY(  1, 19)   DRY(  1, 20)   DRY(  1, 21)   
    DRY(  1, 22)   DRY(  1, 23)   DRY(  1, 24)   DRY(  1, 25)   

 CELL CONVERSIONS FOR ITER.=  2  LAYER=  7  STEP=  1  PERIOD=   2   (ROW,COL)
    DRY(  1, 12)   DRY(  1, 13)   DRY(  1, 14)   DRY(  1, 15)   DRY(  1, 16)   
    DRY(  1, 17)   DRY(  1, 18)   DRY(  1, 19)   DRY(  1, 20)   DRY(  1, 21)   
    DRY(  1, 22)   DRY(  1, 23)   DRY(  1, 24)   DRY(  1, 25)   DRY(  1, 26)   
    DRY(  1, 27)   DRY(  1, 29)   

 CELL CONVERSIONS FOR ITER.=  2  LAYER=  8  STEP=  1  PERIOD=   2   (ROW,COL)
    DRY(  1, 11)   DRY(  1, 12)   DRY(  1, 13)   DRY(  1, 14)   DRY(  1, 15)   
    DRY(  1, 16)   DRY(  1, 17)   DRY(  1, 18)   DRY(  1, 19)   DRY(  1, 20)   
    DRY(  1, 21)   DRY(  1, 22)   DRY(  1, 23)   DRY(  1, 24)   DRY(  1, 25)   
    DRY(  1, 26)   DRY(  1, 27)   DRY(  1, 28)   DRY(  1, 29)   DRY(  1, 30)   
    DRY(  1, 31)   

 CELL CONVERSIONS FOR ITER.=  2  LAYER=  9  STEP=  1  PERIOD=   2   (ROW,COL)
    DRY(  1, 11)   DRY(  1, 12)   DRY(  1, 13)   DRY(  1, 14)   DRY(  1, 15)   
    DRY(  1, 16)   DRY(  1, 17)   DRY(  1, 18)   DRY(  1, 19)   DRY(  1, 20)   
    DRY(  1, 21)   DRY(  1, 22)   DRY(  1, 23)   DRY(  1, 24)   DRY(  1, 25)   
    DRY(  1, 26)   DRY(  1, 27)   DRY(  1, 28)   DRY(  1, 29)   DRY(  1, 30)   
    DRY(  1, 31)   DRY(  1, 32)   DRY(  1, 33)   DRY(  1, 35)   

 CELL CONVERSIONS FOR ITER.=  2  LAYER= 10  STEP=  1  PERIOD=   2   (ROW,COL)
    DRY(  1, 11)   DRY(  1, 12)   DRY(  1, 13)   DRY(  1, 14)   DRY(  1, 15)   
    DRY(  1, 16)   DRY(  1, 17)   DRY(  1, 18)   DRY(  1, 19)   DRY(  1, 20)   
    DRY(  1, 21)   DRY(  1, 22)   DRY(  1, 23)   DRY(  1, 24)   DRY(  1, 25)   
    DRY(  1, 26)   DRY(  1, 27)   DRY(  1, 28)   DRY(  1, 29)   DRY(  1, 30)   
    DRY(  1, 31)   DRY(  1, 32)   DRY(  1, 33)   DRY(  1, 34)   DRY(  1, 35)   
    DRY(  1, 36)   DRY(  1, 37)   

 CELL CONVERSIONS FOR ITER.=  2  LAYER= 11  STEP=  1  PERIOD=   2   (ROW,COL)
    DRY(  1, 10)   DRY(  1, 11)   DRY(  1, 12)   DRY(  1, 13)   DRY(  1, 14)   
    DRY(  1, 15)   DRY(  1, 16)   DRY(  1, 17)   DRY(  1, 18)   DRY(  1, 19)   
    DRY(  1, 20)   DRY(  1, 21)   DRY(  1, 22)   DRY(  1, 23)   DRY(  1, 24)   
    DRY(  1, 25)   DRY(  1, 26)   DRY(  1, 27)   DRY(  1, 28)   DRY(  1, 29)   
    DRY(  1, 30)   DRY(  1, 31)   DRY(  1, 32)   DRY(  1, 33)   DRY(  1, 34)   
    DRY(  1, 35)   DRY(  1, 36)   DRY(  1, 37)   DRY(  1, 38)   DRY(  1, 39)   
    DRY(  1, 41)   

 CELL CONVERSIONS FOR ITER.=  2  LAYER= 12  STEP=  1  PERIOD=   2   (ROW,COL)
    DRY(  1, 10)   DRY(  1, 11)   DRY(  1, 12)   DRY(  1, 13)   DRY(  1, 14)   
    DRY(  1, 15)   DRY(  1, 16)   DRY(  1, 17)   DRY(  1, 18)   DRY(  1, 19)   
    DRY(  1, 20)   DRY(  1, 21)   DRY(  1, 22)   DRY(  1, 23)   DRY(  1, 24)   
    DRY(  1, 25)   DRY(  1, 26)   DRY(  1, 27)   DRY(  1, 28)   DRY(  1, 29)   
    DRY(  1, 30)   DRY(  1, 31)   DRY(  1, 32)   DRY(  1, 33)   DRY(  1, 34)   
    DRY(  1, 35)   DRY(  1, 36)   DRY(  1, 37)   DRY(  1, 38)   DRY(  1, 39)   
    DRY(  1, 40)   DRY(  1, 41)   DRY(  1, 42)   DRY(  1, 43)   

 CELL CONVERSIONS FOR ITER.=  2  LAYER= 13  STEP=  1  PERIOD=   2   (ROW,COL)
    DRY(  1, 10)   DRY(  1, 11)   DRY(  1, 12)   DRY(  1, 13)   DRY(  1, 14)   
    DRY(  1, 15)   DRY(  1, 16)   DRY(  1, 17)   DRY(  1, 18)   DRY(  1, 19)   
    DRY(  1, 20)   DRY(  1, 21)   DRY(  1, 22)   DRY(  1, 23)   DRY(  1, 24)   
    DRY(  1, 25)   DRY(  1, 26)   DRY(  1, 27)   DRY(  1, 28)   DRY(  1, 29)   
    DRY(  1, 30)   DRY(  1, 31)   DRY(  1, 32)   DRY(  1, 33)   DRY(  1, 34)   
    DRY(  1, 35)   DRY(  1, 36)   DRY(  1, 37)   DRY(  1, 38)   DRY(  1, 39)   
    DRY(  1, 40)   DRY(  1, 41)   DRY(  1, 42)   DRY(  1, 43)   DRY(  1, 44)   
    DRY(  1, 45)   

 CELL CONVERSIONS FOR ITER.=  2  LAYER= 14  STEP=  1  PERIOD=   2   (ROW,COL)
    DRY(  1,  9)   DRY(  1, 10)   DRY(  1, 11)   DRY(  1, 12)   DRY(  1, 13)   
    DRY(  1, 14)   DRY(  1, 15)   DRY(  1, 16)   DRY(  1, 17)   DRY(  1, 18)   
    DRY(  1, 19)   DRY(  1, 20)   DRY(  1, 21)   DRY(  1, 22)   DRY(  1, 23)   
    DRY(  1, 24)   DRY(  1, 25)   DRY(  1, 26)   DRY(  1, 27)   DRY(  1, 28)   
    DRY(  1, 29)   DRY(  1, 30)   DRY(  1, 31)   DRY(  1, 32)   DRY(  1, 33)   
    DRY(  1, 34)   DRY(  1, 35)   DRY(  1, 36)   DRY(  1, 37)   DRY(  1, 38)   
    DRY(  1, 39)   DRY(  1, 40)   DRY(  1, 41)   DRY(  1, 42)   DRY(  1, 43)   
    DRY(  1, 44)   DRY(  1, 45)   DRY(  1, 46)   DRY(  1, 47)   DRY(  1, 48)   

 CELL CONVERSIONS FOR ITER.=  2  LAYER= 15  STEP=  1  PERIOD=   2   (ROW,COL)
    DRY(  1,  9)   DRY(  1, 10)   DRY(  1, 11)   DRY(  1, 12)   DRY(  1, 13)   
    DRY(  1, 14)   DRY(  1, 15)   DRY(  1, 16)   DRY(  1, 17)   DRY(  1, 18)   
    DRY(  1, 19)   DRY(  1, 20)   DRY(  1, 22)   DRY(  1, 24)   DRY(  1, 26)   
    DRY(  1, 28)   DRY(  1, 30)   DRY(  1, 32)   DRY(  1, 34)   DRY(  1, 35)   
    DRY(  1, 36)   DRY(  1, 37)   DRY(  1, 38)   DRY(  1, 39)   DRY(  1, 40)   
    DRY(  1, 41)   DRY(  1, 42)   DRY(  1, 43)   DRY(  1, 44)   DRY(  1, 45)   
    DRY(  1, 46)   DRY(  1, 47)   DRY(  1, 48)   DRY(  1, 49)   

 CELL CONVERSIONS FOR ITER.=  2  LAYER= 16  STEP=  1  PERIOD=   2   (ROW,COL)
    DRY(  1,  9)   DRY(  1, 10)   DRY(  1, 11)   DRY(  1, 12)   DRY(  1, 13)   
    DRY(  1, 14)   DRY(  1, 41)   DRY(  1, 42)   DRY(  1, 43)   DRY(  1, 44)   
    DRY(  1, 45)   DRY(  1, 46)   DRY(  1, 47)   DRY(  1, 48)   DRY(  1, 49)   
    DRY(  1, 50)   DRY(  1, 51)   DRY(  1, 52)   

 CELL CONVERSIONS FOR ITER.=  2  LAYER= 17  STEP=  1  PERIOD=   2   (ROW,COL)
    DRY(  1,  8)   DRY(  1, 10)   DRY(  1, 48)   DRY(  1, 50)   DRY(  1, 52)   

 CELL CONVERSIONS FOR ITER.=  2  LAYER= 18  STEP=  1  PERIOD=   2   (ROW,COL)
    DRY(  1, 55)   DRY(  1, 56)   

 CELL CONVERSIONS FOR ITER.=  2  LAYER= 21  STEP=  1  PERIOD=   2   (ROW,COL)
    DRY(  1, 62)   

 CELL CONVERSIONS FOR ITER.=  2  LAYER= 23  STEP=  1  PERIOD=   2   (ROW,COL)
    DRY(  1, 66)   

 CELL CONVERSIONS FOR ITER.=  3  LAYER= 15  STEP=  1  PERIOD=   2   (ROW,COL)
    DRY(  1, 21)   DRY(  1, 23)   DRY(  1, 25)   DRY(  1, 27)   DRY(  1, 29)   
    DRY(  1, 31)   DRY(  1, 33)   

 CELL CONVERSIONS FOR ITER.=  3  LAYER= 16  STEP=  1  PERIOD=   2   (ROW,COL)
    DRY(  1, 15)   DRY(  1, 16)   DRY(  1, 17)   DRY(  1, 18)   DRY(  1, 19)   
    DRY(  1, 20)   DRY(  1, 21)   DRY(  1, 22)   DRY(  1, 23)   DRY(  1, 24)   
    DRY(  1, 25)   DRY(  1, 26)   DRY(  1, 27)   DRY(  1, 28)   DRY(  1, 29)   
    DRY(  1, 30)   DRY(  1, 31)   DRY(  1, 32)   DRY(  1, 33)   DRY(  1, 34)   
    DRY(  1, 35)   DRY(  1, 36)   DRY(  1, 37)   DRY(  1, 38)   DRY(  1, 39)   
    DRY(  1, 40)   

 CELL CONVERSIONS FOR ITER.=  3  LAYER= 17  STEP=  1  PERIOD=   2   (ROW,COL)
    DRY(  1,  9)   DRY(  1, 11)   DRY(  1, 12)   DRY(  1, 13)   DRY(  1, 14)   
    DRY(  1, 15)   DRY(  1, 16)   DRY(  1, 17)   DRY(  1, 18)   DRY(  1, 20)   
    DRY(  1, 22)   DRY(  1, 24)   DRY(  1, 25)   DRY(  1, 26)   DRY(  1, 27)   
    DRY(  1, 28)   DRY(  1, 29)   DRY(  1, 30)   DRY(  1, 31)   DRY(  1, 32)   
    DRY(  1, 33)   DRY(  1, 34)   DRY(  1, 35)   DRY(  1, 36)   DRY(  1, 37)   
    DRY(  1, 38)   DRY(  1, 39)   DRY(  1, 40)   DRY(  1, 41)   DRY(  1, 42)   
    DRY(  1, 43)   DRY(  1, 44)   DRY(  1, 45)   DRY(  1, 46)   DRY(  1, 47)   
    DRY(  1, 49)   DRY(  1, 51)   DRY(  1, 53)   

 CELL CONVERSIONS FOR ITER.=  3  LAYER= 18  STEP=  1  PERIOD=   2   (ROW,COL)
    DRY(  1, 35)   DRY(  1, 36)   DRY(  1, 37)   DRY(  1, 38)   DRY(  1, 39)   
    DRY(  1, 40)   DRY(  1, 41)   DRY(  1, 42)   DRY(  1, 43)   DRY(  1, 44)   
    DRY(  1, 45)   DRY(  1, 46)   DRY(  1, 47)   DRY(  1, 48)   DRY(  1, 49)   
    DRY(  1, 50)   DRY(  1, 51)   DRY(  1, 52)   DRY(  1, 53)   DRY(  1, 54)   

 CELL CONVERSIONS FOR ITER.=  3  LAYER= 19  STEP=  1  PERIOD=   2   (ROW,COL)
    DRY(  1, 40)   DRY(  1, 42)   DRY(  1, 44)   DRY(  1, 46)   DRY(  1, 48)   
    DRY(  1, 49)   DRY(  1, 50)   DRY(  1, 51)   DRY(  1, 52)   DRY(  1, 53)   
    DRY(  1, 54)   DRY(  1, 55)   DRY(  1, 56)   DRY(  1, 57)   

 CELL CONVERSIONS FOR ITER.=  3  LAYER= 20  STEP=  1  PERIOD=   2   (ROW,COL)
    DRY(  1, 53)   DRY(  1, 54)   DRY(  1, 55)   DRY(  1, 56)   DRY(  1, 57)   
    DRY(  1, 58)   DRY(  1, 59)   DRY(  1, 60)   

 CELL CONVERSIONS FOR ITER.=  3  LAYER= 21  STEP=  1  PERIOD=   2   (ROW,COL)
    DRY(  1, 56)   DRY(  1, 58)   DRY(  1, 60)   

 CELL CONVERSIONS FOR ITER.=  3  LAYER= 22  STEP=  1  PERIOD=   2   (ROW,COL)
    DRY(  1, 63)   DRY(  1, 64)   

 CELL CONVERSIONS FOR ITER.=  3  LAYER= 25  STEP=  1  PERIOD=   2   (ROW,COL)
    DRY(  1, 70)   

 CELL CONVERSIONS FOR ITER.=  3  LAYER= 27  STEP=  1  PERIOD=   2   (ROW,COL)
    DRY(  1, 74)   

 CELL CONVERSIONS FOR ITER.=  4  LAYER= 17  STEP=  1  PERIOD=   2   (ROW,COL)
    DRY(  1, 19)   DRY(  1, 21)   DRY(  1, 23)   

 CELL CONVERSIONS FOR ITER.=  4  LAYER= 18  STEP=  1  PERIOD=   2   (ROW,COL)
    DRY(  1,  9)   DRY(  1, 10)   DRY(  1, 11)   DRY(  1, 12)   DRY(  1, 13)   
    DRY(  1, 14)   DRY(  1, 15)   DRY(  1, 16)   DRY(  1, 17)   DRY(  1, 18)   
    DRY(  1, 19)   DRY(  1, 20)   DRY(  1, 21)   DRY(  1, 22)   DRY(  1, 23)   
    DRY(  1, 24)   DRY(  1, 25)   DRY(  1, 26)   DRY(  1, 27)   DRY(  1, 28)   
    DRY(  1, 29)   DRY(  1, 30)   DRY(  1, 31)   DRY(  1, 32)   DRY(  1, 33)   
    DRY(  1, 34)   

 CELL CONVERSIONS FOR ITER.=  4  LAYER= 19  STEP=  1  PERIOD=   2   (ROW,COL)
    DRY(  1, 24)   DRY(  1, 26)   DRY(  1, 28)   DRY(  1, 30)   DRY(  1, 32)   
    DRY(  1, 34)   DRY(  1, 36)   DRY(  1, 37)   DRY(  1, 38)   DRY(  1, 39)   
    DRY(  1, 41)   DRY(  1, 43)   DRY(  1, 45)   DRY(  1, 47)   

 CELL CONVERSIONS FOR ITER.=  4  LAYER= 20  STEP=  1  PERIOD=   2   (ROW,COL)
    DRY(  1, 41)   DRY(  1, 42)   DRY(  1, 43)   DRY(  1, 44)   DRY(  1, 45)   
    DRY(  1, 46)   DRY(  1, 47)   DRY(  1, 48)   DRY(  1, 49)   DRY(  1, 50)   
    DRY(  1, 51)   DRY(  1, 52)   

 CELL CONVERSIONS FOR ITER.=  4  LAYER= 21  STEP=  1  PERIOD=   2   (ROW,COL)
    DRY(  1, 46)   DRY(  1, 48)   DRY(  1, 50)   DRY(  1, 52)   DRY(  1, 53)   
    DRY(  1, 54)   DRY(  1, 55)   DRY(  1, 57)   DRY(  1, 59)   DRY(  1, 61)   

 CELL CONVERSIONS FOR ITER.=  4  LAYER= 22  STEP=  1  PERIOD=   2   (ROW,COL)
    DRY(  1, 55)   DRY(  1, 56)   DRY(  1, 57)   DRY(  1, 58)   DRY(  1, 59)   
    DRY(  1, 60)   DRY(  1, 61)   DRY(  1, 62)   

 CELL CONVERSIONS FOR ITER.=  4  LAYER= 23  STEP=  1  PERIOD=   2   (ROW,COL)
    DRY(  1, 58)   DRY(  1, 60)   DRY(  1, 62)   DRY(  1, 64)   DRY(  1, 65)   

 CELL CONVERSIONS FOR ITER.=  4  LAYER= 24  STEP=  1  PERIOD=   2   (ROW,COL)
    DRY(  1, 65)   DRY(  1, 66)   DRY(  1, 67)   DRY(  1, 68)   

 CELL CONVERSIONS FOR ITER.=  4  LAYER= 25  STEP=  1  PERIOD=   2   (ROW,COL)
    DRY(  1, 68)   

 CELL CONVERSIONS FOR ITER.=  4  LAYER= 29  STEP=  1  PERIOD=   2   (ROW,COL)
    DRY(  1, 78)   

 CELL CONVERSIONS FOR ITER.=  5  LAYER= 19  STEP=  1  PERIOD=   2   (ROW,COL)
    DRY(  1, 16)   DRY(  1, 18)   DRY(  1, 20)   DRY(  1, 22)   DRY(  1, 29)   
    DRY(  1, 31)   DRY(  1, 33)   DRY(  1, 35)   

 CELL CONVERSIONS FOR ITER.=  5  LAYER= 20  STEP=  1  PERIOD=   2   (ROW,COL)
    DRY(  1, 34)   DRY(  1, 35)   DRY(  1, 36)   DRY(  1, 37)   DRY(  1, 38)   
    DRY(  1, 39)   DRY(  1, 40)   

 CELL CONVERSIONS FOR ITER.=  5  LAYER= 21  STEP=  1  PERIOD=   2   (ROW,COL)
    DRY(  1, 40)   DRY(  1, 42)   DRY(  1, 44)   DRY(  1, 47)   DRY(  1, 49)   
    DRY(  1, 51)   

 CELL CONVERSIONS FOR ITER.=  5  LAYER= 22  STEP=  1  PERIOD=   2   (ROW,COL)
    DRY(  1, 50)   DRY(  1, 51)   DRY(  1, 52)   DRY(  1, 53)   DRY(  1, 54)   

 CELL CONVERSIONS FOR ITER.=  5  LAYER= 23  STEP=  1  PERIOD=   2   (ROW,COL)
    DRY(  1, 54)   DRY(  1, 56)   DRY(  1, 59)   DRY(  1, 61)   DRY(  1, 63)   

 CELL CONVERSIONS FOR ITER.=  5  LAYER= 24  STEP=  1  PERIOD=   2   (ROW,COL)
    DRY(  1, 61)   DRY(  1, 62)   DRY(  1, 63)   DRY(  1, 64)   

 CELL CONVERSIONS FOR ITER.=  5  LAYER= 25  STEP=  1  PERIOD=   2   (ROW,COL)
    DRY(  1, 64)   DRY(  1, 66)   DRY(  1, 69)   

 CELL CONVERSIONS FOR ITER.=  5  LAYER= 26  STEP=  1  PERIOD=   2   (ROW,COL)
    DRY(  1, 70)   DRY(  1, 71)   DRY(  1, 72)   

 CELL CONVERSIONS FOR ITER.=  5  LAYER= 27  STEP=  1  PERIOD=   2   (ROW,COL)
    DRY(  1, 72)   

 CELL CONVERSIONS FOR ITER.=  6  LAYER= 18  STEP=  1  PERIOD=   2   (ROW,COL)
    DRY(  1,  8)   

 CELL CONVERSIONS FOR ITER.=  6  LAYER= 19  STEP=  1  PERIOD=   2   (ROW,COL)
    DRY(  1, 14)   DRY(  1, 27)   

 CELL CONVERSIONS FOR ITER.=  6  LAYER= 20  STEP=  1  PERIOD=   2   (ROW,COL)
    DRY(  1, 31)   DRY(  1, 32)   DRY(  1, 33)   

 CELL CONVERSIONS FOR ITER.=  6  LAYER= 21  STEP=  1  PERIOD=   2   (ROW,COL)
    DRY(  1, 36)   DRY(  1, 38)   DRY(  1, 43)   DRY(  1, 45)   

 CELL CONVERSIONS FOR ITER.=  6  LAYER= 22  STEP=  1  PERIOD=   2   (ROW,COL)
    DRY(  1, 47)   DRY(  1, 48)   DRY(  1, 49)   

 CELL CONVERSIONS FOR ITER.=  6  LAYER= 23  STEP=  1  PERIOD=   2   (ROW,COL)
    DRY(  1, 50)   DRY(  1, 52)   DRY(  1, 57)   

 CELL CONVERSIONS FOR ITER.=  6  LAYER= 24  STEP=  1  PERIOD=   2   (ROW,COL)
    DRY(  1, 59)   DRY(  1, 60)   

 CELL CONVERSIONS FOR ITER.=  6  LAYER= 25  STEP=  1  PERIOD=   2   (ROW,COL)
    DRY(  1, 62)   DRY(  1, 67)   

 CELL CONVERSIONS FOR ITER.=  6  LAYER= 26  STEP=  1  PERIOD=   2   (ROW,COL)
    DRY(  1, 68)   DRY(  1, 69)   

 CELL CONVERSIONS FOR ITER.=  6  LAYER= 27  STEP=  1  PERIOD=   2   (ROW,COL)
    DRY(  1, 70)   

 CELL CONVERSIONS FOR ITER.=  6  LAYER= 28  STEP=  1  PERIOD=   2   (ROW,COL)
    DRY(  1, 76)   

 CELL CONVERSIONS FOR ITER.=  6  LAYER= 31  STEP=  1  PERIOD=   2   (ROW,COL)
    DRY(  1, 82)   

 CELL CONVERSIONS FOR ITER.=  7  LAYER= 19  STEP=  1  PERIOD=   2   (ROW,COL)
    DRY(  1, 25)   

 CELL CONVERSIONS FOR ITER.=  7  LAYER= 20  STEP=  1  PERIOD=   2   (ROW,COL)
    DRY(  1, 30)   

 CELL CONVERSIONS FOR ITER.=  7  LAYER= 21  STEP=  1  PERIOD=   2   (ROW,COL)
    DRY(  1, 34)   

 CELL CONVERSIONS FOR ITER.=  7  LAYER= 22  STEP=  1  PERIOD=   2   (ROW,COL)
    DRY(  1, 46)   

 CELL CONVERSIONS FOR ITER.=  7  LAYER= 23  STEP=  1  PERIOD=   2   (ROW,COL)
    DRY(  1, 55)   

 CELL CONVERSIONS FOR ITER.=  7  LAYER= 24  STEP=  1  PERIOD=   2   (ROW,COL)
    DRY(  1, 58)   

 CELL CONVERSIONS FOR ITER.=  7  LAYER= 25  STEP=  1  PERIOD=   2   (ROW,COL)
    DRY(  1, 60)   DRY(  1, 65)   

 CELL CONVERSIONS FOR ITER.=  7  LAYER= 26  STEP=  1  PERIOD=   2   (ROW,COL)
    DRY(  1, 67)   

 CELL CONVERSIONS FOR ITER.=  7  LAYER= 27  STEP=  1  PERIOD=   2   (ROW,COL)
    DRY(  1, 73)   

 CELL CONVERSIONS FOR ITER.=  7  LAYER= 28  STEP=  1  PERIOD=   2   (ROW,COL)
    DRY(  1, 75)   

 CELL CONVERSIONS FOR ITER.=  8  LAYER= 20  STEP=  1  PERIOD=   2   (ROW,COL)
    DRY(  1, 29)   

 CELL CONVERSIONS FOR ITER.=  8  LAYER= 21  STEP=  1  PERIOD=   2   (ROW,COL)
    DRY(  1, 41)   

 CELL CONVERSIONS FOR ITER.=  8  LAYER= 22  STEP=  1  PERIOD=   2   (ROW,COL)
    DRY(  1, 45)   

 CELL CONVERSIONS FOR ITER.=  8  LAYER= 23  STEP=  1  PERIOD=   2   (ROW,COL)
    DRY(  1, 48)   

 CELL CONVERSIONS FOR ITER.=  8  LAYER= 24  STEP=  1  PERIOD=   2   (ROW,COL)
    DRY(  1, 57)   

 CELL CONVERSIONS FOR ITER.=  8  LAYER= 29  STEP=  1  PERIOD=   2   (ROW,COL)
    DRY(  1, 76)   

 CELL CONVERSIONS FOR ITER.=  9  LAYER= 27  STEP=  1  PERIOD=   2   (ROW,COL)
    DRY(  1, 68)   

 CELL CONVERSIONS FOR ITER.=  9  LAYER= 33  STEP=  1  PERIOD=   2   (ROW,COL)
    DRY(  1, 86)   

 CELL CONVERSIONS FOR ITER.= 10  LAYER= 22  STEP=  1  PERIOD=   2   (ROW,COL)
    DRY(  1, 44)   

 CELL CONVERSIONS FOR ITER.= 10  LAYER= 28  STEP=  1  PERIOD=   2   (ROW,COL)
    DRY(  1, 74)   

 CELL CONVERSIONS FOR ITER.= 11  LAYER= 26  STEP=  1  PERIOD=   2   (ROW,COL)
    DRY(  1, 66)   

 CELL CONVERSIONS FOR ITER.= 15  LAYER= 24  STEP=  1  PERIOD=   2   (ROW,COL)
    DRY(  1, 56)   

 OUTPUT CONTROL FOR STRESS PERIOD    2   TIME STEP    1
    PRINT BUDGET
    SAVE HEAD FOR ALL LAYERS
    SAVE DRAWDOWN FOR ALL LAYERS
    SAVE BUDGET
 UBDSV1 SAVING "         STORAGE" ON UNIT  40 AT TIME STEP  1, STRESS PERIOD   2
 UBDSV2 SAVING "   CONSTANT HEAD" ON UNIT  40 AT TIME STEP  1, STRESS PERIOD   2
 UBDSV1 SAVING "FLOW RIGHT FACE " ON UNIT  40 AT TIME STEP  1, STRESS PERIOD   2
 UBDSV1 SAVING "FLOW LOWER FACE " ON UNIT  40 AT TIME STEP  1, STRESS PERIOD   2
 UBDSV4 SAVING "          DRAINS" ON UNIT  40 AT TIME STEP  1, STRESS PERIOD   2
 UBDSV4 SAVING " HEAD DEP BOUNDS" ON UNIT  40 AT TIME STEP  1, STRESS PERIOD   2

 SAVING SATURATED THICKNESS AND FLOW TERMS ON UNIT  333 FOR MT3DMS
 BY THE LINK-MT3DMS PACKAGE V7 AT TIME STEP    1, STRESS PERIOD    2


 HEAD WILL BE SAVED ON UNIT    2 AT END OF TIME STEP    1, STRESS PERIOD    2

 DRAWDOWN WILL BE SAVED ON UNIT   13 AT END OF TIME STEP    1, STRESS PERIOD    2
1
  VOLUMETRIC BUDGET FOR ENTIRE MODEL AT END OF TIME STEP    1, STRESS PERIOD   2
  ------------------------------------------------------------------------------

     CUMULATIVE VOLUMES      L**3       RATES FOR THIS TIME STEP      L**3/T
     ------------------                 ------------------------

           IN:                                      IN:
           ---                                      ---
             STORAGE =           9.9960               STORAGE =           5.1731
       CONSTANT HEAD =           0.0000         CONSTANT HEAD =           0.0000
              DRAINS =           0.0000                DRAINS =           0.0000
     HEAD DEP BOUNDS =         302.0997       HEAD DEP BOUNDS =           5.0809

            TOTAL IN =         312.0957              TOTAL IN =          10.2539

          OUT:                                     OUT:
          ----                                     ----
             STORAGE =       2.9051E-06               STORAGE =           0.0000
       CONSTANT HEAD =           0.0000         CONSTANT HEAD =           0.0000
              DRAINS =         312.0965                DRAINS =          10.2539
     HEAD DEP BOUNDS =           0.0000       HEAD DEP BOUNDS =           0.0000

           TOTAL OUT =         312.0965             TOTAL OUT =          10.2539

            IN - OUT =      -8.0028E-04              IN - OUT =      -4.2775E-11

 PERCENT DISCREPANCY =          -0.00     PERCENT DISCREPANCY =          -0.00






         TIME SUMMARY AT END OF TIME STEP    1 IN STRESS PERIOD    2
                    SECONDS     MINUTES      HOURS       DAYS        YEARS
                    -----------------------------------------------------------
   TIME STEP LENGTH  86400.      1440.0      24.000      1.0000     2.73785E-03
 STRESS PERIOD TIME  86400.      1440.0      24.000      1.0000     2.73785E-03
         TOTAL TIME 9.50400E+05  15840.      264.00      11.000     3.01164E-02
1
 
 SOLVING FOR HEAD 

 CELL CONVERSIONS FOR ITER.=  2  LAYER= 19  STEP=  2  PERIOD=   2   (ROW,COL)
    DRY(  1, 12)   DRY(  1, 21)   DRY(  1, 23)   

 CELL CONVERSIONS FOR ITER.=  2  LAYER= 20  STEP=  2  PERIOD=   2   (ROW,COL)
    DRY(  1, 25)   DRY(  1, 26)   DRY(  1, 27)   DRY(  1, 28)   

 CELL CONVERSIONS FOR ITER.=  2  LAYER= 21  STEP=  2  PERIOD=   2   (ROW,COL)
    DRY(  1, 30)   DRY(  1, 32)   DRY(  1, 37)   DRY(  1, 39)   

 CELL CONVERSIONS FOR ITER.=  2  LAYER= 22  STEP=  2  PERIOD=   2   (ROW,COL)
    DRY(  1, 40)   DRY(  1, 41)   DRY(  1, 42)   DRY(  1, 43)   

 CELL CONVERSIONS FOR ITER.=  2  LAYER= 23  STEP=  2  PERIOD=   2   (ROW,COL)
    DRY(  1, 44)   DRY(  1, 46)   DRY(  1, 51)   DRY(  1, 53)   

 CELL CONVERSIONS FOR ITER.=  2  LAYER= 24  STEP=  2  PERIOD=   2   (ROW,COL)
    DRY(  1, 53)   DRY(  1, 54)   DRY(  1, 55)   

 CELL CONVERSIONS FOR ITER.=  2  LAYER= 25  STEP=  2  PERIOD=   2   (ROW,COL)
    DRY(  1, 56)   DRY(  1, 58)   DRY(  1, 61)   DRY(  1, 63)   

 CELL CONVERSIONS FOR ITER.=  2  LAYER= 26  STEP=  2  PERIOD=   2   (ROW,COL)
    DRY(  1, 64)   DRY(  1, 65)   

 CELL CONVERSIONS FOR ITER.=  2  LAYER= 27  STEP=  2  PERIOD=   2   (ROW,COL)
    DRY(  1, 66)   DRY(  1, 71)   

 CELL CONVERSIONS FOR ITER.=  2  LAYER= 28  STEP=  2  PERIOD=   2   (ROW,COL)
    DRY(  1, 73)   

 CELL CONVERSIONS FOR ITER.=  2  LAYER= 30  STEP=  2  PERIOD=   2   (ROW,COL)
    DRY(  1, 80)   

 CELL CONVERSIONS FOR ITER.=  3  LAYER= 28  STEP=  2  PERIOD=   2   (ROW,COL)
    DRY(  1, 72)   

 CELL CONVERSIONS FOR ITER.=  3  LAYER= 29  STEP=  2  PERIOD=   2   (ROW,COL)
    DRY(  1, 74)   

 OUTPUT CONTROL FOR STRESS PERIOD    2   TIME STEP    2
    PRINT BUDGET
    SAVE HEAD FOR ALL LAYERS
    SAVE DRAWDOWN FOR ALL LAYERS
    SAVE BUDGET
 UBDSV1 SAVING "         STORAGE" ON UNIT  40 AT TIME STEP  2, STRESS PERIOD   2
 UBDSV2 SAVING "   CONSTANT HEAD" ON UNIT  40 AT TIME STEP  2, STRESS PERIOD   2
 UBDSV1 SAVING "FLOW RIGHT FACE " ON UNIT  40 AT TIME STEP  2, STRESS PERIOD   2
 UBDSV1 SAVING "FLOW LOWER FACE " ON UNIT  40 AT TIME STEP  2, STRESS PERIOD   2
 UBDSV4 SAVING "          DRAINS" ON UNIT  40 AT TIME STEP  2, STRESS PERIOD   2
 UBDSV4 SAVING " HEAD DEP BOUNDS" ON UNIT  40 AT TIME STEP  2, STRESS PERIOD   2

 SAVING SATURATED THICKNESS AND FLOW TERMS ON UNIT  333 FOR MT3DMS
 BY THE LINK-MT3DMS PACKAGE V7 AT TIME STEP    2, STRESS PERIOD    2


 HEAD WILL BE SAVED ON UNIT    2 AT END OF TIME STEP    2, STRESS PERIOD    2

 DRAWDOWN WILL BE SAVED ON UNIT   13 AT END OF TIME STEP    2, STRESS PERIOD    2
1
  VOLUMETRIC BUDGET FOR ENTIRE MODEL AT END OF TIME STEP    2, STRESS PERIOD   2
  ------------------------------------------------------------------------------

     CUMULATIVE VOLUMES      L**3       RATES FOR THIS TIME STEP      L**3/T
     ------------------                 ------------------------

           IN:                                      IN:
           ---                                      ---
             STORAGE =          12.2577               STORAGE =           2.2618
       CONSTANT HEAD =           0.0000         CONSTANT HEAD =           0.0000
              DRAINS =           0.0000                DRAINS =           0.0000
     HEAD DEP BOUNDS =         308.9614       HEAD DEP BOUNDS =           6.8617

            TOTAL IN =         321.2191              TOTAL IN =           9.1235

          OUT:                                     OUT:
          ----                                     ----
             STORAGE =       2.9051E-06               STORAGE =           0.0000
       CONSTANT HEAD =           0.0000         CONSTANT HEAD =           0.0000
              DRAINS =         321.2199                DRAINS =           9.1235
     HEAD DEP BOUNDS =           0.0000       HEAD DEP BOUNDS =           0.0000

           TOTAL OUT =         321.2199             TOTAL OUT =           9.1235

            IN - OUT =      -8.0028E-04              IN - OUT =      -9.0100E-11

 PERCENT DISCREPANCY =          -0.00     PERCENT DISCREPANCY =          -0.00






         TIME SUMMARY AT END OF TIME STEP    2 IN STRESS PERIOD    2
                    SECONDS     MINUTES      HOURS       DAYS        YEARS
                    -----------------------------------------------------------
   TIME STEP LENGTH  86400.      1440.0      24.000      1.0000     2.73785E-03
 STRESS PERIOD TIME 1.72800E+05  2880.0      48.000      2.0000     5.47570E-03
         TOTAL TIME 1.03680E+06  17280.      288.00      12.000     3.28542E-02
1
 
 SOLVING FOR HEAD 

 CELL CONVERSIONS FOR ITER.=  2  LAYER= 19  STEP=  3  PERIOD=   2   (ROW,COL)
    DRY(  1, 19)   

 CELL CONVERSIONS FOR ITER.=  2  LAYER= 20  STEP=  3  PERIOD=   2   (ROW,COL)
    DRY(  1, 23)   DRY(  1, 24)   

 CELL CONVERSIONS FOR ITER.=  2  LAYER= 21  STEP=  3  PERIOD=   2   (ROW,COL)
    DRY(  1, 28)   DRY(  1, 35)   

 CELL CONVERSIONS FOR ITER.=  2  LAYER= 22  STEP=  3  PERIOD=   2   (ROW,COL)
    DRY(  1, 38)   DRY(  1, 39)   

 CELL CONVERSIONS FOR ITER.=  2  LAYER= 23  STEP=  3  PERIOD=   2   (ROW,COL)
    DRY(  1, 42)   DRY(  1, 49)   

 CELL CONVERSIONS FOR ITER.=  2  LAYER= 24  STEP=  3  PERIOD=   2   (ROW,COL)
    DRY(  1, 51)   DRY(  1, 52)   

 CELL CONVERSIONS FOR ITER.=  2  LAYER= 25  STEP=  3  PERIOD=   2   (ROW,COL)
    DRY(  1, 54)   DRY(  1, 59)   

 CELL CONVERSIONS FOR ITER.=  2  LAYER= 26  STEP=  3  PERIOD=   2   (ROW,COL)
    DRY(  1, 62)   DRY(  1, 63)   

 CELL CONVERSIONS FOR ITER.=  2  LAYER= 27  STEP=  3  PERIOD=   2   (ROW,COL)
    DRY(  1, 69)   

 CELL CONVERSIONS FOR ITER.=  2  LAYER= 29  STEP=  3  PERIOD=   2   (ROW,COL)
    DRY(  1, 77)   

 CELL CONVERSIONS FOR ITER.=  2  LAYER= 30  STEP=  3  PERIOD=   2   (ROW,COL)
    DRY(  1, 79)   

 CELL CONVERSIONS FOR ITER.=  3  LAYER= 27  STEP=  3  PERIOD=   2   (ROW,COL)
    DRY(  1, 64)   

 CELL CONVERSIONS FOR ITER.=  3  LAYER= 28  STEP=  3  PERIOD=   2   (ROW,COL)
    DRY(  1, 71)   

 CELL CONVERSIONS FOR ITER.=  3  LAYER= 31  STEP=  3  PERIOD=   2   (ROW,COL)
    DRY(  1, 80)   

 OUTPUT CONTROL FOR STRESS PERIOD    2   TIME STEP    3
    PRINT BUDGET
    SAVE HEAD FOR ALL LAYERS
    SAVE DRAWDOWN FOR ALL LAYERS
    SAVE BUDGET
 UBDSV1 SAVING "         STORAGE" ON UNIT  40 AT TIME STEP  3, STRESS PERIOD   2
 UBDSV2 SAVING "   CONSTANT HEAD" ON UNIT  40 AT TIME STEP  3, STRESS PERIOD   2
 UBDSV1 SAVING "FLOW RIGHT FACE " ON UNIT  40 AT TIME STEP  3, STRESS PERIOD   2
 UBDSV1 SAVING "FLOW LOWER FACE " ON UNIT  40 AT TIME STEP  3, STRESS PERIOD   2
 UBDSV4 SAVING "          DRAINS" ON UNIT  40 AT TIME STEP  3, STRESS PERIOD   2
 UBDSV4 SAVING " HEAD DEP BOUNDS" ON UNIT  40 AT TIME STEP  3, STRESS PERIOD   2

 SAVING SATURATED THICKNESS AND FLOW TERMS ON UNIT  333 FOR MT3DMS
 BY THE LINK-MT3DMS PACKAGE V7 AT TIME STEP    3, STRESS PERIOD    2


 HEAD WILL BE SAVED ON UNIT    2 AT END OF TIME STEP    3, STRESS PERIOD    2

 DRAWDOWN WILL BE SAVED ON UNIT   13 AT END OF TIME STEP    3, STRESS PERIOD    2
1
  VOLUMETRIC BUDGET FOR ENTIRE MODEL AT END OF TIME STEP    3, STRESS PERIOD   2
  ------------------------------------------------------------------------------

     CUMULATIVE VOLUMES      L**3       RATES FOR THIS TIME STEP      L**3/T
     ------------------                 ------------------------

           IN:                                      IN:
           ---                                      ---
             STORAGE =          13.4205               STORAGE =           1.1628
       CONSTANT HEAD =           0.0000         CONSTANT HEAD =           0.0000
              DRAINS =           0.0000                DRAINS =           0.0000
     HEAD DEP BOUNDS =         316.3756       HEAD DEP BOUNDS =           7.4142

            TOTAL IN =         329.7961              TOTAL IN =           8.5770

          OUT:                                     OUT:
          ----                                     ----
             STORAGE =       2.9051E-06               STORAGE =           0.0000
       CONSTANT HEAD =           0.0000         CONSTANT HEAD =           0.0000
              DRAINS =         329.7969                DRAINS =           8.5770
     HEAD DEP BOUNDS =           0.0000       HEAD DEP BOUNDS =           0.0000

           TOTAL OUT =         329.7969             TOTAL OUT =           8.5770

            IN - OUT =      -8.0028E-04              IN - OUT =      -1.1671E-10

 PERCENT DISCREPANCY =          -0.00     PERCENT DISCREPANCY =          -0.00






         TIME SUMMARY AT END OF TIME STEP    3 IN STRESS PERIOD    2
                    SECONDS     MINUTES      HOURS       DAYS        YEARS
                    -----------------------------------------------------------
   TIME STEP LENGTH  86400.      1440.0      24.000      1.0000     2.73785E-03
 STRESS PERIOD TIME 2.59200E+05  4320.0      72.000      3.0000     8.21355E-03
         TOTAL TIME 1.12320E+06  18720.      312.00      13.000     3.55921E-02
1
 
 SOLVING FOR HEAD 

 CELL CONVERSIONS FOR ITER.=  2  LAYER= 21  STEP=  4  PERIOD=   2   (ROW,COL)
    DRY(  1, 26)   

 CELL CONVERSIONS FOR ITER.=  2  LAYER= 22  STEP=  4  PERIOD=   2   (ROW,COL)
    DRY(  1, 37)   

 CELL CONVERSIONS FOR ITER.=  2  LAYER= 23  STEP=  4  PERIOD=   2   (ROW,COL)
    DRY(  1, 47)   

 CELL CONVERSIONS FOR ITER.=  2  LAYER= 24  STEP=  4  PERIOD=   2   (ROW,COL)
    DRY(  1, 50)   

 CELL CONVERSIONS FOR ITER.=  2  LAYER= 26  STEP=  4  PERIOD=   2   (ROW,COL)
    DRY(  1, 61)   

 CELL CONVERSIONS FOR ITER.=  3  LAYER= 23  STEP=  4  PERIOD=   2   (ROW,COL)
    DRY(  1, 40)   

 OUTPUT CONTROL FOR STRESS PERIOD    2   TIME STEP    4
    PRINT BUDGET
    SAVE HEAD FOR ALL LAYERS
    SAVE DRAWDOWN FOR ALL LAYERS
    SAVE BUDGET
 UBDSV1 SAVING "         STORAGE" ON UNIT  40 AT TIME STEP  4, STRESS PERIOD   2
 UBDSV2 SAVING "   CONSTANT HEAD" ON UNIT  40 AT TIME STEP  4, STRESS PERIOD   2
 UBDSV1 SAVING "FLOW RIGHT FACE " ON UNIT  40 AT TIME STEP  4, STRESS PERIOD   2
 UBDSV1 SAVING "FLOW LOWER FACE " ON UNIT  40 AT TIME STEP  4, STRESS PERIOD   2
 UBDSV4 SAVING "          DRAINS" ON UNIT  40 AT TIME STEP  4, STRESS PERIOD   2
 UBDSV4 SAVING " HEAD DEP BOUNDS" ON UNIT  40 AT TIME STEP  4, STRESS PERIOD   2

 SAVING SATURATED THICKNESS AND FLOW TERMS ON UNIT  333 FOR MT3DMS
 BY THE LINK-MT3DMS PACKAGE V7 AT TIME STEP    4, STRESS PERIOD    2


 HEAD WILL BE SAVED ON UNIT    2 AT END OF TIME STEP    4, STRESS PERIOD    2

 DRAWDOWN WILL BE SAVED ON UNIT   13 AT END OF TIME STEP    4, STRESS PERIOD    2
1
  VOLUMETRIC BUDGET FOR ENTIRE MODEL AT END OF TIME STEP    4, STRESS PERIOD   2
  ------------------------------------------------------------------------------

     CUMULATIVE VOLUMES      L**3       RATES FOR THIS TIME STEP      L**3/T
     ------------------                 ------------------------

           IN:                                      IN:
           ---                                      ---
             STORAGE =          14.0705               STORAGE =           0.6500
       CONSTANT HEAD =           0.0000         CONSTANT HEAD =           0.0000
              DRAINS =           0.0000                DRAINS =           0.0000
     HEAD DEP BOUNDS =         324.0393       HEAD DEP BOUNDS =           7.6637

            TOTAL IN =         338.1097              TOTAL IN =           8.3136

          OUT:                                     OUT:
          ----                                     ----
             STORAGE =       2.9051E-06               STORAGE =           0.0000
       CONSTANT HEAD =           0.0000         CONSTANT HEAD =           0.0000
              DRAINS =         338.1105                DRAINS =           8.3136
     HEAD DEP BOUNDS =           0.0000       HEAD DEP BOUNDS =           0.0000

           TOTAL OUT =         338.1105             TOTAL OUT =           8.3136

            IN - OUT =      -8.0028E-04              IN - OUT =       9.2033E-12

 PERCENT DISCREPANCY =          -0.00     PERCENT DISCREPANCY =           0.00






         TIME SUMMARY AT END OF TIME STEP    4 IN STRESS PERIOD    2
                    SECONDS     MINUTES      HOURS       DAYS        YEARS
                    -----------------------------------------------------------
   TIME STEP LENGTH  86400.      1440.0      24.000      1.0000     2.73785E-03
 STRESS PERIOD TIME 3.45600E+05  5760.0      96.000      4.0000     1.09514E-02
         TOTAL TIME 1.20960E+06  20160.      336.00      14.000     3.83299E-02
1
 
 SOLVING FOR HEAD 

 CELL CONVERSIONS FOR ITER.=  2  LAYER= 21  STEP=  5  PERIOD=   2   (ROW,COL)
    DRY(  1, 33)   

 CELL CONVERSIONS FOR ITER.=  2  LAYER= 25  STEP=  5  PERIOD=   2   (ROW,COL)
    DRY(  1, 52)   

 CELL CONVERSIONS FOR ITER.=  2  LAYER= 29  STEP=  5  PERIOD=   2   (ROW,COL)
    DRY(  1, 72)   

 CELL CONVERSIONS FOR ITER.=  2  LAYER= 30  STEP=  5  PERIOD=   2   (ROW,COL)
    DRY(  1, 78)   

 CELL CONVERSIONS FOR ITER.=  3  LAYER= 28  STEP=  5  PERIOD=   2   (ROW,COL)
    DRY(  1, 70)   

 CELL CONVERSIONS FOR ITER.=  6  LAYER= 20  STEP=  5  PERIOD=   2   (ROW,COL)
    DRY(  1, 22)   

 OUTPUT CONTROL FOR STRESS PERIOD    2   TIME STEP    5
    PRINT BUDGET
    SAVE HEAD FOR ALL LAYERS
    SAVE DRAWDOWN FOR ALL LAYERS
    SAVE BUDGET
 UBDSV1 SAVING "         STORAGE" ON UNIT  40 AT TIME STEP  5, STRESS PERIOD   2
 UBDSV2 SAVING "   CONSTANT HEAD" ON UNIT  40 AT TIME STEP  5, STRESS PERIOD   2
 UBDSV1 SAVING "FLOW RIGHT FACE " ON UNIT  40 AT TIME STEP  5, STRESS PERIOD   2
 UBDSV1 SAVING "FLOW LOWER FACE " ON UNIT  40 AT TIME STEP  5, STRESS PERIOD   2
 UBDSV4 SAVING "          DRAINS" ON UNIT  40 AT TIME STEP  5, STRESS PERIOD   2
 UBDSV4 SAVING " HEAD DEP BOUNDS" ON UNIT  40 AT TIME STEP  5, STRESS PERIOD   2

 SAVING SATURATED THICKNESS AND FLOW TERMS ON UNIT  333 FOR MT3DMS
 BY THE LINK-MT3DMS PACKAGE V7 AT TIME STEP    5, STRESS PERIOD    2


 HEAD WILL BE SAVED ON UNIT    2 AT END OF TIME STEP    5, STRESS PERIOD    2

 DRAWDOWN WILL BE SAVED ON UNIT   13 AT END OF TIME STEP    5, STRESS PERIOD    2
1
  VOLUMETRIC BUDGET FOR ENTIRE MODEL AT END OF TIME STEP    5, STRESS PERIOD   2
  ------------------------------------------------------------------------------

     CUMULATIVE VOLUMES      L**3       RATES FOR THIS TIME STEP      L**3/T
     ------------------                 ------------------------

           IN:                                      IN:
           ---                                      ---
             STORAGE =          14.4380               STORAGE =           0.3675
       CONSTANT HEAD =           0.0000         CONSTANT HEAD =           0.0000
              DRAINS =           0.0000                DRAINS =           0.0000
     HEAD DEP BOUNDS =         331.8311       HEAD DEP BOUNDS =           7.7919

            TOTAL IN =         346.2691              TOTAL IN =           8.1594

          OUT:                                     OUT:
          ----                                     ----
             STORAGE =       4.5487E-06               STORAGE =       1.6436E-06
       CONSTANT HEAD =           0.0000         CONSTANT HEAD =           0.0000
              DRAINS =         346.2699                DRAINS =           8.1594
     HEAD DEP BOUNDS =           0.0000       HEAD DEP BOUNDS =           0.0000

           TOTAL OUT =         346.2699             TOTAL OUT =           8.1594

            IN - OUT =      -8.0028E-04              IN - OUT =       5.8300E-12

 PERCENT DISCREPANCY =          -0.00     PERCENT DISCREPANCY =           0.00






         TIME SUMMARY AT END OF TIME STEP    5 IN STRESS PERIOD    2
                    SECONDS     MINUTES      HOURS       DAYS        YEARS
                    -----------------------------------------------------------
   TIME STEP LENGTH  86400.      1440.0      24.000      1.0000     2.73785E-03
 STRESS PERIOD TIME 4.32000E+05  7200.0      120.00      5.0000     1.36893E-02
         TOTAL TIME 1.29600E+06  21600.      360.00      15.000     4.10678E-02
1
 
 SOLVING FOR HEAD 

 CELL CONVERSIONS FOR ITER.=  2  LAYER= 24  STEP=  6  PERIOD=   2   (ROW,COL)
    DRY(  1, 49)   

 CELL CONVERSIONS FOR ITER.= 10  LAYER= 35  STEP=  6  PERIOD=   2   (ROW,COL)
    DRY(  1, 90)   

 OUTPUT CONTROL FOR STRESS PERIOD    2   TIME STEP    6
    PRINT BUDGET
    SAVE HEAD FOR ALL LAYERS
    SAVE DRAWDOWN FOR ALL LAYERS
    SAVE BUDGET
 UBDSV1 SAVING "         STORAGE" ON UNIT  40 AT TIME STEP  6, STRESS PERIOD   2
 UBDSV2 SAVING "   CONSTANT HEAD" ON UNIT  40 AT TIME STEP  6, STRESS PERIOD   2
 UBDSV1 SAVING "FLOW RIGHT FACE " ON UNIT  40 AT TIME STEP  6, STRESS PERIOD   2
 UBDSV1 SAVING "FLOW LOWER FACE " ON UNIT  40 AT TIME STEP  6, STRESS PERIOD   2
 UBDSV4 SAVING "          DRAINS" ON UNIT  40 AT TIME STEP  6, STRESS PERIOD   2
 UBDSV4 SAVING " HEAD DEP BOUNDS" ON UNIT  40 AT TIME STEP  6, STRESS PERIOD   2

 SAVING SATURATED THICKNESS AND FLOW TERMS ON UNIT  333 FOR MT3DMS
 BY THE LINK-MT3DMS PACKAGE V7 AT TIME STEP    6, STRESS PERIOD    2


 HEAD WILL BE SAVED ON UNIT    2 AT END OF TIME STEP    6, STRESS PERIOD    2

 DRAWDOWN WILL BE SAVED ON UNIT   13 AT END OF TIME STEP    6, STRESS PERIOD    2
1
  VOLUMETRIC BUDGET FOR ENTIRE MODEL AT END OF TIME STEP    6, STRESS PERIOD   2
  ------------------------------------------------------------------------------

     CUMULATIVE VOLUMES      L**3       RATES FOR THIS TIME STEP      L**3/T
     ------------------                 ------------------------

           IN:                                      IN:
           ---                                      ---
             STORAGE =          14.6471               STORAGE =           0.2091
       CONSTANT HEAD =           0.0000         CONSTANT HEAD =           0.0000
              DRAINS =           0.0000                DRAINS =           0.0000
     HEAD DEP BOUNDS =         339.6915       HEAD DEP BOUNDS =           7.8604

            TOTAL IN =         354.3386              TOTAL IN =           8.0695

          OUT:                                     OUT:
          ----                                     ----
             STORAGE =       2.1935E-04               STORAGE =       2.1480E-04
       CONSTANT HEAD =           0.0000         CONSTANT HEAD =           0.0000
              DRAINS =         354.3392                DRAINS =           8.0693
     HEAD DEP BOUNDS =           0.0000       HEAD DEP BOUNDS =           0.0000

           TOTAL OUT =         354.3394             TOTAL OUT =           8.0695

            IN - OUT =      -8.0037E-04              IN - OUT =      -8.6738E-08

 PERCENT DISCREPANCY =          -0.00     PERCENT DISCREPANCY =          -0.00






         TIME SUMMARY AT END OF TIME STEP    6 IN STRESS PERIOD    2
                    SECONDS     MINUTES      HOURS       DAYS        YEARS
                    -----------------------------------------------------------
   TIME STEP LENGTH  86400.      1440.0      24.000      1.0000     2.73785E-03
 STRESS PERIOD TIME 5.18400E+05  8640.0      144.00      6.0000     1.64271E-02
         TOTAL TIME 1.38240E+06  23040.      384.00      16.000     4.38056E-02
1
 
 SOLVING FOR HEAD 

 CELL CONVERSIONS FOR ITER.=  2  LAYER= 22  STEP=  7  PERIOD=   2   (ROW,COL)
    DRY(  1, 36)   

 CELL CONVERSIONS FOR ITER.=  2  LAYER= 26  STEP=  7  PERIOD=   2   (ROW,COL)
    DRY(  1, 60)   

 OUTPUT CONTROL FOR STRESS PERIOD    2   TIME STEP    7
    PRINT BUDGET
    SAVE HEAD FOR ALL LAYERS
    SAVE DRAWDOWN FOR ALL LAYERS
    SAVE BUDGET
 UBDSV1 SAVING "         STORAGE" ON UNIT  40 AT TIME STEP  7, STRESS PERIOD   2
 UBDSV2 SAVING "   CONSTANT HEAD" ON UNIT  40 AT TIME STEP  7, STRESS PERIOD   2
 UBDSV1 SAVING "FLOW RIGHT FACE " ON UNIT  40 AT TIME STEP  7, STRESS PERIOD   2
 UBDSV1 SAVING "FLOW LOWER FACE " ON UNIT  40 AT TIME STEP  7, STRESS PERIOD   2
 UBDSV4 SAVING "          DRAINS" ON UNIT  40 AT TIME STEP  7, STRESS PERIOD   2
 UBDSV4 SAVING " HEAD DEP BOUNDS" ON UNIT  40 AT TIME STEP  7, STRESS PERIOD   2

 SAVING SATURATED THICKNESS AND FLOW TERMS ON UNIT  333 FOR MT3DMS
 BY THE LINK-MT3DMS PACKAGE V7 AT TIME STEP    7, STRESS PERIOD    2


 HEAD WILL BE SAVED ON UNIT    2 AT END OF TIME STEP    7, STRESS PERIOD    2

 DRAWDOWN WILL BE SAVED ON UNIT   13 AT END OF TIME STEP    7, STRESS PERIOD    2
1
  VOLUMETRIC BUDGET FOR ENTIRE MODEL AT END OF TIME STEP    7, STRESS PERIOD   2
  ------------------------------------------------------------------------------

     CUMULATIVE VOLUMES      L**3       RATES FOR THIS TIME STEP      L**3/T
     ------------------                 ------------------------

           IN:                                      IN:
           ---                                      ---
             STORAGE =          14.7704               STORAGE =           0.1233
       CONSTANT HEAD =           0.0000         CONSTANT HEAD =           0.0000
              DRAINS =           0.0000                DRAINS =           0.0000
     HEAD DEP BOUNDS =         347.5911       HEAD DEP BOUNDS =           7.8996

            TOTAL IN =         362.3615              TOTAL IN =           8.0229

          OUT:                                     OUT:
          ----                                     ----
             STORAGE =       2.1935E-04               STORAGE =           0.0000
       CONSTANT HEAD =           0.0000         CONSTANT HEAD =           0.0000
              DRAINS =         362.3621                DRAINS =           8.0229
     HEAD DEP BOUNDS =           0.0000       HEAD DEP BOUNDS =           0.0000

           TOTAL OUT =         362.3623             TOTAL OUT =           8.0229

            IN - OUT =      -8.0037E-04              IN - OUT =       2.9779E-11

 PERCENT DISCREPANCY =          -0.00     PERCENT DISCREPANCY =           0.00






         TIME SUMMARY AT END OF TIME STEP    7 IN STRESS PERIOD    2
                    SECONDS     MINUTES      HOURS       DAYS        YEARS
                    -----------------------------------------------------------
   TIME STEP LENGTH  86400.      1440.0      24.000      1.0000     2.73785E-03
 STRESS PERIOD TIME 6.04800E+05  10080.      168.00      7.0000     1.91650E-02
         TOTAL TIME 1.46880E+06  24480.      408.00      17.000     4.65435E-02
1
 
 SOLVING FOR HEAD 

 OUTPUT CONTROL FOR STRESS PERIOD    2   TIME STEP    8
    PRINT BUDGET
    SAVE HEAD FOR ALL LAYERS
    SAVE DRAWDOWN FOR ALL LAYERS
    SAVE BUDGET
 UBDSV1 SAVING "         STORAGE" ON UNIT  40 AT TIME STEP  8, STRESS PERIOD   2
 UBDSV2 SAVING "   CONSTANT HEAD" ON UNIT  40 AT TIME STEP  8, STRESS PERIOD   2
 UBDSV1 SAVING "FLOW RIGHT FACE " ON UNIT  40 AT TIME STEP  8, STRESS PERIOD   2
 UBDSV1 SAVING "FLOW LOWER FACE " ON UNIT  40 AT TIME STEP  8, STRESS PERIOD   2
 UBDSV4 SAVING "          DRAINS" ON UNIT  40 AT TIME STEP  8, STRESS PERIOD   2
 UBDSV4 SAVING " HEAD DEP BOUNDS" ON UNIT  40 AT TIME STEP  8, STRESS PERIOD   2

 SAVING SATURATED THICKNESS AND FLOW TERMS ON UNIT  333 FOR MT3DMS
 BY THE LINK-MT3DMS PACKAGE V7 AT TIME STEP    8, STRESS PERIOD    2


 HEAD WILL BE SAVED ON UNIT    2 AT END OF TIME STEP    8, STRESS PERIOD    2

 DRAWDOWN WILL BE SAVED ON UNIT   13 AT END OF TIME STEP    8, STRESS PERIOD    2
1
  VOLUMETRIC BUDGET FOR ENTIRE MODEL AT END OF TIME STEP    8, STRESS PERIOD   2
  ------------------------------------------------------------------------------

     CUMULATIVE VOLUMES      L**3       RATES FOR THIS TIME STEP      L**3/T
     ------------------                 ------------------------

           IN:                                      IN:
           ---                                      ---
             STORAGE =          14.8426               STORAGE =       7.2227E-02
       CONSTANT HEAD =           0.0000         CONSTANT HEAD =           0.0000
              DRAINS =           0.0000                DRAINS =           0.0000
     HEAD DEP BOUNDS =         355.5128       HEAD DEP BOUNDS =           7.9217

            TOTAL IN =         370.3554              TOTAL IN =           7.9939

          OUT:                                     OUT:
          ----                                     ----
             STORAGE =       2.1935E-04               STORAGE =           0.0000
       CONSTANT HEAD =           0.0000         CONSTANT HEAD =           0.0000
              DRAINS =         370.3560                DRAINS =           7.9939
     HEAD DEP BOUNDS =           0.0000       HEAD DEP BOUNDS =           0.0000

           TOTAL OUT =         370.3562             TOTAL OUT =           7.9939

            IN - OUT =      -8.0037E-04              IN - OUT =       5.6870E-12

 PERCENT DISCREPANCY =          -0.00     PERCENT DISCREPANCY =           0.00






         TIME SUMMARY AT END OF TIME STEP    8 IN STRESS PERIOD    2
                    SECONDS     MINUTES      HOURS       DAYS        YEARS
                    -----------------------------------------------------------
   TIME STEP LENGTH  86400.      1440.0      24.000      1.0000     2.73785E-03
 STRESS PERIOD TIME 6.91200E+05  11520.      192.00      8.0000     2.19028E-02
         TOTAL TIME 1.55520E+06  25920.      432.00      18.000     4.92813E-02
1
 
 SOLVING FOR HEAD 

 OUTPUT CONTROL FOR STRESS PERIOD    2   TIME STEP    9
    PRINT BUDGET
    SAVE HEAD FOR ALL LAYERS
    SAVE DRAWDOWN FOR ALL LAYERS
    SAVE BUDGET
 UBDSV1 SAVING "         STORAGE" ON UNIT  40 AT TIME STEP  9, STRESS PERIOD   2
 UBDSV2 SAVING "   CONSTANT HEAD" ON UNIT  40 AT TIME STEP  9, STRESS PERIOD   2
 UBDSV1 SAVING "FLOW RIGHT FACE " ON UNIT  40 AT TIME STEP  9, STRESS PERIOD   2
 UBDSV1 SAVING "FLOW LOWER FACE " ON UNIT  40 AT TIME STEP  9, STRESS PERIOD   2
 UBDSV4 SAVING "          DRAINS" ON UNIT  40 AT TIME STEP  9, STRESS PERIOD   2
 UBDSV4 SAVING " HEAD DEP BOUNDS" ON UNIT  40 AT TIME STEP  9, STRESS PERIOD   2

 SAVING SATURATED THICKNESS AND FLOW TERMS ON UNIT  333 FOR MT3DMS
 BY THE LINK-MT3DMS PACKAGE V7 AT TIME STEP    9, STRESS PERIOD    2


 HEAD WILL BE SAVED ON UNIT    2 AT END OF TIME STEP    9, STRESS PERIOD    2

 DRAWDOWN WILL BE SAVED ON UNIT   13 AT END OF TIME STEP    9, STRESS PERIOD    2
1
  VOLUMETRIC BUDGET FOR ENTIRE MODEL AT END OF TIME STEP    9, STRESS PERIOD   2
  ------------------------------------------------------------------------------

     CUMULATIVE VOLUMES      L**3       RATES FOR THIS TIME STEP      L**3/T
     ------------------                 ------------------------

           IN:                                      IN:
           ---                                      ---
             STORAGE =          14.8847               STORAGE =       4.2043E-02
       CONSTANT HEAD =           0.0000         CONSTANT HEAD =           0.0000
              DRAINS =           0.0000                DRAINS =           0.0000
     HEAD DEP BOUNDS =         363.4473       HEAD DEP BOUNDS =           7.9345

            TOTAL IN =         378.3319              TOTAL IN =           7.9765

          OUT:                                     OUT:
          ----                                     ----
             STORAGE =       2.2258E-04               STORAGE =       3.2260E-06
       CONSTANT HEAD =           0.0000         CONSTANT HEAD =           0.0000
              DRAINS =         378.3325                DRAINS =           7.9765
     HEAD DEP BOUNDS =           0.0000       HEAD DEP BOUNDS =           0.0000

           TOTAL OUT =         378.3327             TOTAL OUT =           7.9765

            IN - OUT =      -8.0037E-04              IN - OUT =       6.6860E-11

 PERCENT DISCREPANCY =          -0.00     PERCENT DISCREPANCY =           0.00






         TIME SUMMARY AT END OF TIME STEP    9 IN STRESS PERIOD    2
                    SECONDS     MINUTES      HOURS       DAYS        YEARS
                    -----------------------------------------------------------
   TIME STEP LENGTH  86400.      1440.0      24.000      1.0000     2.73785E-03
 STRESS PERIOD TIME 7.77600E+05  12960.      216.00      9.0000     2.46407E-02
         TOTAL TIME 1.64160E+06  27360.      456.00      19.000     5.20192E-02
1
 
 SOLVING FOR HEAD 

 OUTPUT CONTROL FOR STRESS PERIOD    2   TIME STEP   10
    PRINT BUDGET
    SAVE HEAD FOR ALL LAYERS
    SAVE DRAWDOWN FOR ALL LAYERS
    SAVE BUDGET
 UBDSV1 SAVING "         STORAGE" ON UNIT  40 AT TIME STEP 10, STRESS PERIOD   2
 UBDSV2 SAVING "   CONSTANT HEAD" ON UNIT  40 AT TIME STEP 10, STRESS PERIOD   2
 UBDSV1 SAVING "FLOW RIGHT FACE " ON UNIT  40 AT TIME STEP 10, STRESS PERIOD   2
 UBDSV1 SAVING "FLOW LOWER FACE " ON UNIT  40 AT TIME STEP 10, STRESS PERIOD   2
 UBDSV4 SAVING "          DRAINS" ON UNIT  40 AT TIME STEP 10, STRESS PERIOD   2
 UBDSV4 SAVING " HEAD DEP BOUNDS" ON UNIT  40 AT TIME STEP 10, STRESS PERIOD   2

 SAVING SATURATED THICKNESS AND FLOW TERMS ON UNIT  333 FOR MT3DMS
 BY THE LINK-MT3DMS PACKAGE V7 AT TIME STEP   10, STRESS PERIOD    2


 HEAD WILL BE SAVED ON UNIT    2 AT END OF TIME STEP   10, STRESS PERIOD    2

 DRAWDOWN WILL BE SAVED ON UNIT   13 AT END OF TIME STEP   10, STRESS PERIOD    2
1
  VOLUMETRIC BUDGET FOR ENTIRE MODEL AT END OF TIME STEP   10, STRESS PERIOD   2
  ------------------------------------------------------------------------------

     CUMULATIVE VOLUMES      L**3       RATES FOR THIS TIME STEP      L**3/T
     ------------------                 ------------------------

           IN:                                      IN:
           ---                                      ---
             STORAGE =          14.9091               STORAGE =       2.4384E-02
       CONSTANT HEAD =           0.0000         CONSTANT HEAD =           0.0000
              DRAINS =           0.0000                DRAINS =           0.0000
     HEAD DEP BOUNDS =         371.3891       HEAD DEP BOUNDS =           7.9418

            TOTAL IN =         386.2981              TOTAL IN =           7.9662

          OUT:                                     OUT:
          ----                                     ----
             STORAGE =       2.6128E-04               STORAGE =       3.8699E-05
       CONSTANT HEAD =           0.0000         CONSTANT HEAD =           0.0000
              DRAINS =         386.2987                DRAINS =           7.9661
     HEAD DEP BOUNDS =           0.0000       HEAD DEP BOUNDS =           0.0000

           TOTAL OUT =         386.2989             TOTAL OUT =           7.9662

            IN - OUT =      -8.0037E-04              IN - OUT =      -6.5615E-11

 PERCENT DISCREPANCY =          -0.00     PERCENT DISCREPANCY =          -0.00






         TIME SUMMARY AT END OF TIME STEP   10 IN STRESS PERIOD    2
                    SECONDS     MINUTES      HOURS       DAYS        YEARS
                    -----------------------------------------------------------
   TIME STEP LENGTH  86400.      1440.0      24.000      1.0000     2.73785E-03
 STRESS PERIOD TIME 8.64000E+05  14400.      240.00      10.000     2.73785E-02
         TOTAL TIME 1.72800E+06  28800.      480.00      20.000     5.47570E-02
1
1
                            STRESS PERIOD NO.    3, LENGTH =   10.00000    
                            -----------------------------------------------

                              NUMBER OF TIME STEPS =    10

                               MULTIPLIER FOR DELT =     1.000

                            INITIAL TIME STEP SIZE =   1.000000    

 REUSING NON-PARAMETER DRAINS FROM LAST STRESS PERIOD

     75 DRAINS

 BOUND. NO. LAYER   ROW   COL     STAGE      CONDUCTANCE         IFACE           CONDFACT        CELLGRP         
 ----------------------------------------------------------------------------------------------------------------
      1      3      1     13       38.00          0.1000E+05       6.000           0.000          -1.000    
      2      4      1     13       38.00          0.1000E+05       6.000           0.000          -1.000    
      3      5      1     12       38.00          0.1000E+05       6.000           0.000          -1.000    
      4      6      1     12       38.00          0.1000E+05       6.000           0.000          -1.000    
      5      7      1     12       38.00          0.1000E+05       6.000           0.000          -1.000    
      6      8      1     11       38.00          0.1000E+05       6.000           0.000          -1.000    
      7      9      1     11       38.00          0.1000E+05       6.000           0.000          -1.000    
      8     10      1     11       38.00          0.1000E+05       6.000           0.000          -1.000    
      9     11      1     10       38.00          0.1000E+05       6.000           0.000          -1.000    
     10     12      1     10       38.00          0.1000E+05       6.000           0.000          -1.000    
     11     13      1     10       38.00          0.1000E+05       6.000           0.000          -1.000    
     12     14      1      9       38.00          0.1000E+05       6.000           0.000          -1.000    
     13     15      1      9       38.00          0.1000E+05       6.000           0.000          -1.000    
     14     16      1      9       38.00          0.1000E+05       6.000           0.000          -1.000    
     15     17      1      8       38.00          0.1000E+05       6.000           0.000          -1.000    
     16     18      1      8       38.00          0.1000E+05       6.000           0.000          -1.000    
     17     19      1      8       38.00          0.1000E+05       6.000           0.000          -1.000    
     18     20      1      7       38.00          0.1000E+05       6.000           0.000          -1.000    
     19     21      1      7       38.00          0.1000E+05       6.000           0.000          -1.000    
     20     22      1      7       38.00          0.1000E+05       6.000           0.000          -1.000    
     21     23      1      6       38.00          0.1000E+05       6.000           0.000          -1.000    
     22     24      1      6       38.00          0.1000E+05       6.000           0.000          -1.000    
     23     25      1      6       38.00          0.1000E+05       6.000           0.000          -1.000    
     24     26      1      5       38.00          0.1000E+05       6.000           0.000          -1.000    
     25     27      1      5       38.00          0.1000E+05       6.000           0.000          -1.000    
     26     28      1      5       38.00          0.1000E+05       6.000           0.000          -1.000    
     27     29      1      4       38.00          0.1000E+05       6.000           0.000          -1.000    
     28     30      1      4       38.00          0.1000E+05       6.000           0.000          -1.000    
     29     31      1      4       38.00          0.1000E+05       6.000           0.000          -1.000    
     30     32      1      3       38.00          0.1000E+05       6.000           0.000          -1.000    
     31     33      1      3       38.00          0.1000E+05       6.000           0.000          -1.000    
     32     34      1      3       38.00          0.1000E+05       6.000           0.000          -1.000    
     33     35      1      2       38.00          0.1000E+05       6.000           0.000          -1.000    
     34     36      1      2       38.00          0.1000E+05       6.000           0.000          -1.000    
     35     37      1      2       38.00          0.1000E+05       6.000           0.000          -1.000    
     36     38      1      1       38.00          0.1000E+05       6.000           0.000          -1.000    
     37     39      1      1       38.00          0.1000E+05       6.000           0.000          -1.000    
     38     40      1      1       38.00          0.1000E+05       6.000           0.000          -1.000    

     38 GHB CELLS
 
 SOLVING FOR HEAD 

 CELL CONVERSIONS FOR ITER.=  2  LAYER= 18  STEP=  1  PERIOD=   3   (ROW,COL)
    WET(  1,  8)   WET(  1,  9)   WET(  1, 10)   WET(  1, 11)   WET(  1, 13)   
    WET(  1, 15)   WET(  1, 17)   

 CELL CONVERSIONS FOR ITER.=  2  LAYER= 19  STEP=  1  PERIOD=   3   (ROW,COL)
    WET(  1, 12)   WET(  1, 14)   WET(  1, 16)   WET(  1, 18)   WET(  1, 19)   
    WET(  1, 20)   WET(  1, 21)   

 CELL CONVERSIONS FOR ITER.=  2  LAYER= 20  STEP=  1  PERIOD=   3   (ROW,COL)
    WET(  1, 22)   WET(  1, 23)   WET(  1, 24)   WET(  1, 25)   WET(  1, 27)   
    WET(  1, 29)   WET(  1, 31)   

 CELL CONVERSIONS FOR ITER.=  2  LAYER= 21  STEP=  1  PERIOD=   3   (ROW,COL)
    WET(  1, 26)   WET(  1, 28)   WET(  1, 30)   WET(  1, 32)   WET(  1, 33)   
    WET(  1, 34)   WET(  1, 35)   

 CELL CONVERSIONS FOR ITER.=  2  LAYER= 22  STEP=  1  PERIOD=   3   (ROW,COL)
    WET(  1, 36)   WET(  1, 37)   WET(  1, 38)   WET(  1, 39)   WET(  1, 41)   
    WET(  1, 43)   WET(  1, 45)   

 CELL CONVERSIONS FOR ITER.=  2  LAYER= 23  STEP=  1  PERIOD=   3   (ROW,COL)
    WET(  1, 40)   WET(  1, 42)   WET(  1, 44)   WET(  1, 46)   WET(  1, 47)   
    WET(  1, 48)   

 CELL CONVERSIONS FOR ITER.=  2  LAYER= 24  STEP=  1  PERIOD=   3   (ROW,COL)
    WET(  1, 49)   WET(  1, 50)   WET(  1, 51)   WET(  1, 53)   WET(  1, 55)   
    WET(  1, 57)   

 CELL CONVERSIONS FOR ITER.=  2  LAYER= 25  STEP=  1  PERIOD=   3   (ROW,COL)
    WET(  1, 52)   WET(  1, 54)   WET(  1, 56)   WET(  1, 58)   WET(  1, 59)   

 CELL CONVERSIONS FOR ITER.=  2  LAYER= 26  STEP=  1  PERIOD=   3   (ROW,COL)
    WET(  1, 60)   WET(  1, 61)   WET(  1, 62)   WET(  1, 63)   WET(  1, 65)   
    WET(  1, 67)   

 CELL CONVERSIONS FOR ITER.=  2  LAYER= 27  STEP=  1  PERIOD=   3   (ROW,COL)
    WET(  1, 64)   WET(  1, 66)   WET(  1, 68)   WET(  1, 69)   

 CELL CONVERSIONS FOR ITER.=  2  LAYER= 28  STEP=  1  PERIOD=   3   (ROW,COL)
    WET(  1, 70)   WET(  1, 71)   WET(  1, 73)   

 CELL CONVERSIONS FOR ITER.=  2  LAYER= 29  STEP=  1  PERIOD=   3   (ROW,COL)
    WET(  1, 72)   WET(  1, 74)   WET(  1, 77)   

 CELL CONVERSIONS FOR ITER.=  2  LAYER= 30  STEP=  1  PERIOD=   3   (ROW,COL)
    WET(  1, 78)   WET(  1, 79)   

 CELL CONVERSIONS FOR ITER.=  2  LAYER= 31  STEP=  1  PERIOD=   3   (ROW,COL)
    WET(  1, 80)   

 CELL CONVERSIONS FOR ITER.=  2  LAYER= 35  STEP=  1  PERIOD=   3   (ROW,COL)
    WET(  1, 90)   

 CELL CONVERSIONS FOR ITER.=  3  LAYER= 17  STEP=  1  PERIOD=   3   (ROW,COL)
    WET(  1,  8)   WET(  1,  9)   WET(  1, 10)   WET(  1, 11)   WET(  1, 13)   
    WET(  1, 15)   WET(  1, 17)   

 CELL CONVERSIONS FOR ITER.=  3  LAYER= 18  STEP=  1  PERIOD=   3   (ROW,COL)
    WET(  1, 12)   WET(  1, 14)   WET(  1, 16)   WET(  1, 18)   WET(  1, 19)   
    WET(  1, 20)   WET(  1, 21)   

 CELL CONVERSIONS FOR ITER.=  3  LAYER= 19  STEP=  1  PERIOD=   3   (ROW,COL)
    WET(  1, 22)   WET(  1, 23)   WET(  1, 24)   WET(  1, 25)   WET(  1, 27)   
    WET(  1, 29)   WET(  1, 31)   

 CELL CONVERSIONS FOR ITER.=  3  LAYER= 20  STEP=  1  PERIOD=   3   (ROW,COL)
    WET(  1, 26)   WET(  1, 28)   WET(  1, 30)   WET(  1, 32)   WET(  1, 33)   
    WET(  1, 34)   WET(  1, 35)   

 CELL CONVERSIONS FOR ITER.=  3  LAYER= 21  STEP=  1  PERIOD=   3   (ROW,COL)
    WET(  1, 36)   WET(  1, 37)   WET(  1, 38)   WET(  1, 39)   WET(  1, 41)   
    WET(  1, 43)   WET(  1, 45)   

 CELL CONVERSIONS FOR ITER.=  3  LAYER= 22  STEP=  1  PERIOD=   3   (ROW,COL)
    WET(  1, 40)   WET(  1, 42)   WET(  1, 44)   WET(  1, 46)   WET(  1, 47)   
    WET(  1, 48)   

 CELL CONVERSIONS FOR ITER.=  3  LAYER= 23  STEP=  1  PERIOD=   3   (ROW,COL)
    WET(  1, 49)   WET(  1, 50)   WET(  1, 51)   WET(  1, 53)   WET(  1, 55)   
    WET(  1, 57)   

 CELL CONVERSIONS FOR ITER.=  3  LAYER= 24  STEP=  1  PERIOD=   3   (ROW,COL)
    WET(  1, 52)   WET(  1, 54)   WET(  1, 56)   WET(  1, 58)   WET(  1, 59)   

 CELL CONVERSIONS FOR ITER.=  3  LAYER= 25  STEP=  1  PERIOD=   3   (ROW,COL)
    WET(  1, 60)   WET(  1, 61)   WET(  1, 62)   WET(  1, 63)   WET(  1, 65)   

 CELL CONVERSIONS FOR ITER.=  3  LAYER= 26  STEP=  1  PERIOD=   3   (ROW,COL)
    WET(  1, 64)   WET(  1, 66)   

 CELL CONVERSIONS FOR ITER.=  3  LAYER= 27  STEP=  1  PERIOD=   3   (ROW,COL)
    WET(  1, 71)   

 CELL CONVERSIONS FOR ITER.=  3  LAYER= 28  STEP=  1  PERIOD=   3   (ROW,COL)
    WET(  1, 72)   

 CELL CONVERSIONS FOR ITER.=  4  LAYER= 16  STEP=  1  PERIOD=   3   (ROW,COL)
    WET(  1,  9)   WET(  1, 10)   WET(  1, 11)   WET(  1, 13)   WET(  1, 15)   
    WET(  1, 17)   

 CELL CONVERSIONS FOR ITER.=  4  LAYER= 17  STEP=  1  PERIOD=   3   (ROW,COL)
    WET(  1, 12)   WET(  1, 14)   WET(  1, 16)   WET(  1, 18)   WET(  1, 19)   
    WET(  1, 20)   WET(  1, 21)   

 CELL CONVERSIONS FOR ITER.=  4  LAYER= 18  STEP=  1  PERIOD=   3   (ROW,COL)
    WET(  1, 22)   WET(  1, 23)   WET(  1, 24)   WET(  1, 25)   WET(  1, 27)   
    WET(  1, 29)   WET(  1, 31)   

 CELL CONVERSIONS FOR ITER.=  4  LAYER= 19  STEP=  1  PERIOD=   3   (ROW,COL)
    WET(  1, 26)   WET(  1, 28)   WET(  1, 30)   WET(  1, 32)   WET(  1, 33)   
    WET(  1, 34)   WET(  1, 35)   

 CELL CONVERSIONS FOR ITER.=  4  LAYER= 20  STEP=  1  PERIOD=   3   (ROW,COL)
    WET(  1, 36)   WET(  1, 37)   WET(  1, 38)   WET(  1, 39)   WET(  1, 41)   
    WET(  1, 43)   WET(  1, 45)   

 CELL CONVERSIONS FOR ITER.=  4  LAYER= 21  STEP=  1  PERIOD=   3   (ROW,COL)
    WET(  1, 40)   WET(  1, 42)   WET(  1, 44)   WET(  1, 46)   WET(  1, 47)   
    WET(  1, 48)   

 CELL CONVERSIONS FOR ITER.=  4  LAYER= 22  STEP=  1  PERIOD=   3   (ROW,COL)
    WET(  1, 49)   WET(  1, 50)   WET(  1, 51)   WET(  1, 53)   

 CELL CONVERSIONS FOR ITER.=  4  LAYER= 23  STEP=  1  PERIOD=   3   (ROW,COL)
    WET(  1, 52)   WET(  1, 54)   WET(  1, 59)   

 CELL CONVERSIONS FOR ITER.=  4  LAYER= 24  STEP=  1  PERIOD=   3   (ROW,COL)
    WET(  1, 60)   

 CELL CONVERSIONS FOR ITER.=  4  LAYER= 28  STEP=  1  PERIOD=   3   (ROW,COL)
    WET(  1, 74)   

 CELL CONVERSIONS FOR ITER.=  4  LAYER= 30  STEP=  1  PERIOD=   3   (ROW,COL)
    WET(  1, 80)   

 CELL CONVERSIONS FOR ITER.=  5  LAYER= 15  STEP=  1  PERIOD=   3   (ROW,COL)
    WET(  1,  9)   WET(  1, 10)   WET(  1, 11)   WET(  1, 13)   WET(  1, 15)   
    WET(  1, 17)   

 CELL CONVERSIONS FOR ITER.=  5  LAYER= 16  STEP=  1  PERIOD=   3   (ROW,COL)
    WET(  1, 12)   WET(  1, 14)   WET(  1, 16)   WET(  1, 18)   WET(  1, 19)   
    WET(  1, 20)   WET(  1, 21)   

 CELL CONVERSIONS FOR ITER.=  5  LAYER= 17  STEP=  1  PERIOD=   3   (ROW,COL)
    WET(  1, 22)   WET(  1, 23)   WET(  1, 24)   WET(  1, 25)   WET(  1, 27)   
    WET(  1, 29)   WET(  1, 31)   

 CELL CONVERSIONS FOR ITER.=  5  LAYER= 18  STEP=  1  PERIOD=   3   (ROW,COL)
    WET(  1, 26)   WET(  1, 28)   WET(  1, 30)   WET(  1, 32)   WET(  1, 33)   
    WET(  1, 34)   WET(  1, 35)   

 CELL CONVERSIONS FOR ITER.=  5  LAYER= 19  STEP=  1  PERIOD=   3   (ROW,COL)
    WET(  1, 36)   WET(  1, 37)   WET(  1, 38)   WET(  1, 39)   WET(  1, 41)   
    WET(  1, 43)   WET(  1, 45)   

 CELL CONVERSIONS FOR ITER.=  5  LAYER= 20  STEP=  1  PERIOD=   3   (ROW,COL)
    WET(  1, 40)   WET(  1, 42)   WET(  1, 44)   WET(  1, 46)   WET(  1, 47)   

 CELL CONVERSIONS FOR ITER.=  5  LAYER= 21  STEP=  1  PERIOD=   3   (ROW,COL)
    WET(  1, 49)   WET(  1, 51)   

 CELL CONVERSIONS FOR ITER.=  5  LAYER= 22  STEP=  1  PERIOD=   3   (ROW,COL)
    WET(  1, 52)   WET(  1, 54)   

 CELL CONVERSIONS FOR ITER.=  5  LAYER= 24  STEP=  1  PERIOD=   3   (ROW,COL)
    WET(  1, 61)   

 CELL CONVERSIONS FOR ITER.=  5  LAYER= 25  STEP=  1  PERIOD=   3   (ROW,COL)
    WET(  1, 67)   

 CELL CONVERSIONS FOR ITER.=  5  LAYER= 26  STEP=  1  PERIOD=   3   (ROW,COL)
    WET(  1, 68)   

 CELL CONVERSIONS FOR ITER.=  5  LAYER= 27  STEP=  1  PERIOD=   3   (ROW,COL)
    WET(  1, 73)   

 CELL CONVERSIONS FOR ITER.=  5  LAYER= 28  STEP=  1  PERIOD=   3   (ROW,COL)
    WET(  1, 75)   

 CELL CONVERSIONS FOR ITER.=  5  LAYER= 29  STEP=  1  PERIOD=   3   (ROW,COL)
    WET(  1, 76)   

 CELL CONVERSIONS FOR ITER.=  6  LAYER= 14  STEP=  1  PERIOD=   3   (ROW,COL)
    WET(  1,  9)   WET(  1, 10)   WET(  1, 11)   WET(  1, 13)   WET(  1, 15)   
    WET(  1, 17)   

 CELL CONVERSIONS FOR ITER.=  6  LAYER= 15  STEP=  1  PERIOD=   3   (ROW,COL)
    WET(  1, 12)   WET(  1, 14)   WET(  1, 16)   WET(  1, 18)   WET(  1, 19)   
    WET(  1, 20)   WET(  1, 21)   

 CELL CONVERSIONS FOR ITER.=  6  LAYER= 16  STEP=  1  PERIOD=   3   (ROW,COL)
    WET(  1, 22)   WET(  1, 23)   WET(  1, 24)   WET(  1, 25)   WET(  1, 27)   
    WET(  1, 29)   WET(  1, 31)   

 CELL CONVERSIONS FOR ITER.=  6  LAYER= 17  STEP=  1  PERIOD=   3   (ROW,COL)
    WET(  1, 26)   WET(  1, 28)   WET(  1, 30)   WET(  1, 32)   WET(  1, 33)   
    WET(  1, 34)   WET(  1, 35)   

 CELL CONVERSIONS FOR ITER.=  6  LAYER= 18  STEP=  1  PERIOD=   3   (ROW,COL)
    WET(  1, 36)   WET(  1, 37)   WET(  1, 38)   WET(  1, 39)   WET(  1, 41)   

 CELL CONVERSIONS FOR ITER.=  6  LAYER= 19  STEP=  1  PERIOD=   3   (ROW,COL)
    WET(  1, 40)   WET(  1, 42)   

 CELL CONVERSIONS FOR ITER.=  6  LAYER= 20  STEP=  1  PERIOD=   3   (ROW,COL)
    WET(  1, 48)   

 CELL CONVERSIONS FOR ITER.=  6  LAYER= 21  STEP=  1  PERIOD=   3   (ROW,COL)
    WET(  1, 50)   WET(  1, 53)   

 CELL CONVERSIONS FOR ITER.=  6  LAYER= 22  STEP=  1  PERIOD=   3   (ROW,COL)
    WET(  1, 55)   

 CELL CONVERSIONS FOR ITER.=  6  LAYER= 23  STEP=  1  PERIOD=   3   (ROW,COL)
    WET(  1, 56)   

 CELL CONVERSIONS FOR ITER.=  6  LAYER= 24  STEP=  1  PERIOD=   3   (ROW,COL)
    WET(  1, 62)   

 CELL CONVERSIONS FOR ITER.=  6  LAYER= 26  STEP=  1  PERIOD=   3   (ROW,COL)
    WET(  1, 69)   

 CELL CONVERSIONS FOR ITER.=  6  LAYER= 27  STEP=  1  PERIOD=   3   (ROW,COL)
    WET(  1, 70)   

 CELL CONVERSIONS FOR ITER.=  7  LAYER= 13  STEP=  1  PERIOD=   3   (ROW,COL)
    WET(  1, 10)   WET(  1, 11)   WET(  1, 13)   WET(  1, 15)   WET(  1, 17)   

 CELL CONVERSIONS FOR ITER.=  7  LAYER= 14  STEP=  1  PERIOD=   3   (ROW,COL)
    WET(  1, 12)   WET(  1, 14)   WET(  1, 16)   WET(  1, 18)   WET(  1, 19)   
    WET(  1, 20)   WET(  1, 21)   

 CELL CONVERSIONS FOR ITER.=  7  LAYER= 15  STEP=  1  PERIOD=   3   (ROW,COL)
    WET(  1, 22)   WET(  1, 23)   WET(  1, 24)   WET(  1, 25)   WET(  1, 27)   
    WET(  1, 29)   WET(  1, 31)   

 CELL CONVERSIONS FOR ITER.=  7  LAYER= 16  STEP=  1  PERIOD=   3   (ROW,COL)
    WET(  1, 26)   WET(  1, 28)   WET(  1, 30)   WET(  1, 32)   WET(  1, 33)   
    WET(  1, 34)   WET(  1, 35)   

 CELL CONVERSIONS FOR ITER.=  7  LAYER= 17  STEP=  1  PERIOD=   3   (ROW,COL)
    WET(  1, 36)   WET(  1, 37)   WET(  1, 39)   

 CELL CONVERSIONS FOR ITER.=  7  LAYER= 18  STEP=  1  PERIOD=   3   (ROW,COL)
    WET(  1, 40)   

 CELL CONVERSIONS FOR ITER.=  7  LAYER= 19  STEP=  1  PERIOD=   3   (ROW,COL)
    WET(  1, 47)   

 CELL CONVERSIONS FOR ITER.=  7  LAYER= 20  STEP=  1  PERIOD=   3   (ROW,COL)
    WET(  1, 49)   

 CELL CONVERSIONS FOR ITER.=  7  LAYER= 23  STEP=  1  PERIOD=   3   (ROW,COL)
    WET(  1, 61)   

 CELL CONVERSIONS FOR ITER.=  7  LAYER= 24  STEP=  1  PERIOD=   3   (ROW,COL)
    WET(  1, 63)   

 CELL CONVERSIONS FOR ITER.=  7  LAYER= 25  STEP=  1  PERIOD=   3   (ROW,COL)
    WET(  1, 64)   

 CELL CONVERSIONS FOR ITER.=  7  LAYER= 33  STEP=  1  PERIOD=   3   (ROW,COL)
    WET(  1, 86)   

 CELL CONVERSIONS FOR ITER.=  8  LAYER= 12  STEP=  1  PERIOD=   3   (ROW,COL)
    WET(  1, 10)   WET(  1, 11)   WET(  1, 13)   WET(  1, 15)   WET(  1, 17)   

 CELL CONVERSIONS FOR ITER.=  8  LAYER= 13  STEP=  1  PERIOD=   3   (ROW,COL)
    WET(  1, 12)   WET(  1, 14)   WET(  1, 16)   WET(  1, 18)   WET(  1, 19)   
    WET(  1, 20)   WET(  1, 21)   

 CELL CONVERSIONS FOR ITER.=  8  LAYER= 14  STEP=  1  PERIOD=   3   (ROW,COL)
    WET(  1, 22)   WET(  1, 23)   WET(  1, 24)   WET(  1, 25)   WET(  1, 27)   
    WET(  1, 29)   

 CELL CONVERSIONS FOR ITER.=  8  LAYER= 15  STEP=  1  PERIOD=   3   (ROW,COL)
    WET(  1, 26)   WET(  1, 28)   WET(  1, 30)   WET(  1, 33)   WET(  1, 35)   

 CELL CONVERSIONS FOR ITER.=  8  LAYER= 16  STEP=  1  PERIOD=   3   (ROW,COL)
    WET(  1, 36)   

 CELL CONVERSIONS FOR ITER.=  8  LAYER= 17  STEP=  1  PERIOD=   3   (ROW,COL)
    WET(  1, 38)   WET(  1, 41)   

 CELL CONVERSIONS FOR ITER.=  8  LAYER= 18  STEP=  1  PERIOD=   3   (ROW,COL)
    WET(  1, 42)   WET(  1, 43)   

 CELL CONVERSIONS FOR ITER.=  8  LAYER= 19  STEP=  1  PERIOD=   3   (ROW,COL)
    WET(  1, 44)   

 CELL CONVERSIONS FOR ITER.=  8  LAYER= 21  STEP=  1  PERIOD=   3   (ROW,COL)
    WET(  1, 55)   

 CELL CONVERSIONS FOR ITER.=  8  LAYER= 22  STEP=  1  PERIOD=   3   (ROW,COL)
    WET(  1, 56)   

 CELL CONVERSIONS FOR ITER.=  8  LAYER= 23  STEP=  1  PERIOD=   3   (ROW,COL)
    WET(  1, 58)   

 CELL CONVERSIONS FOR ITER.=  9  LAYER= 11  STEP=  1  PERIOD=   3   (ROW,COL)
    WET(  1, 10)   WET(  1, 11)   WET(  1, 13)   WET(  1, 15)   WET(  1, 17)   

 CELL CONVERSIONS FOR ITER.=  9  LAYER= 12  STEP=  1  PERIOD=   3   (ROW,COL)
    WET(  1, 12)   WET(  1, 14)   WET(  1, 16)   WET(  1, 18)   WET(  1, 19)   
    WET(  1, 20)   WET(  1, 21)   

 CELL CONVERSIONS FOR ITER.=  9  LAYER= 13  STEP=  1  PERIOD=   3   (ROW,COL)
    WET(  1, 22)   WET(  1, 23)   WET(  1, 24)   WET(  1, 25)   WET(  1, 27)   
    WET(  1, 29)   

 CELL CONVERSIONS FOR ITER.=  9  LAYER= 14  STEP=  1  PERIOD=   3   (ROW,COL)
    WET(  1, 26)   WET(  1, 28)   WET(  1, 30)   WET(  1, 31)   

 CELL CONVERSIONS FOR ITER.=  9  LAYER= 15  STEP=  1  PERIOD=   3   (ROW,COL)
    WET(  1, 32)   

 CELL CONVERSIONS FOR ITER.=  9  LAYER= 16  STEP=  1  PERIOD=   3   (ROW,COL)
    WET(  1, 37)   

 CELL CONVERSIONS FOR ITER.=  9  LAYER= 20  STEP=  1  PERIOD=   3   (ROW,COL)
    WET(  1, 50)   

 CELL CONVERSIONS FOR ITER.=  9  LAYER= 22  STEP=  1  PERIOD=   3   (ROW,COL)
    WET(  1, 57)   

 CELL CONVERSIONS FOR ITER.= 10  LAYER= 10  STEP=  1  PERIOD=   3   (ROW,COL)
    WET(  1, 11)   WET(  1, 13)   WET(  1, 15)   WET(  1, 17)   

 CELL CONVERSIONS FOR ITER.= 10  LAYER= 11  STEP=  1  PERIOD=   3   (ROW,COL)
    WET(  1, 12)   WET(  1, 14)   WET(  1, 16)   WET(  1, 18)   WET(  1, 19)   
    WET(  1, 20)   WET(  1, 21)   

 CELL CONVERSIONS FOR ITER.= 10  LAYER= 12  STEP=  1  PERIOD=   3   (ROW,COL)
    WET(  1, 22)   WET(  1, 23)   WET(  1, 24)   WET(  1, 25)   

 CELL CONVERSIONS FOR ITER.= 10  LAYER= 13  STEP=  1  PERIOD=   3   (ROW,COL)
    WET(  1, 26)   WET(  1, 31)   

 CELL CONVERSIONS FOR ITER.= 10  LAYER= 14  STEP=  1  PERIOD=   3   (ROW,COL)
    WET(  1, 32)   

 CELL CONVERSIONS FOR ITER.= 10  LAYER= 16  STEP=  1  PERIOD=   3   (ROW,COL)
    WET(  1, 38)   

 CELL CONVERSIONS FOR ITER.= 10  LAYER= 17  STEP=  1  PERIOD=   3   (ROW,COL)
    WET(  1, 43)   

 CELL CONVERSIONS FOR ITER.= 10  LAYER= 18  STEP=  1  PERIOD=   3   (ROW,COL)
    WET(  1, 44)   

 CELL CONVERSIONS FOR ITER.= 10  LAYER= 19  STEP=  1  PERIOD=   3   (ROW,COL)
    WET(  1, 49)   

 CELL CONVERSIONS FOR ITER.= 10  LAYER= 20  STEP=  1  PERIOD=   3   (ROW,COL)
    WET(  1, 51)   

 CELL CONVERSIONS FOR ITER.= 10  LAYER= 21  STEP=  1  PERIOD=   3   (ROW,COL)
    WET(  1, 52)   

 CELL CONVERSIONS FOR ITER.= 10  LAYER= 26  STEP=  1  PERIOD=   3   (ROW,COL)
    WET(  1, 70)   

 CELL CONVERSIONS FOR ITER.= 11  LAYER=  9  STEP=  1  PERIOD=   3   (ROW,COL)
    WET(  1, 11)   WET(  1, 13)   WET(  1, 15)   WET(  1, 17)   

 CELL CONVERSIONS FOR ITER.= 11  LAYER= 10  STEP=  1  PERIOD=   3   (ROW,COL)
    WET(  1, 12)   WET(  1, 14)   WET(  1, 16)   WET(  1, 18)   WET(  1, 19)   
    WET(  1, 20)   WET(  1, 21)   

 CELL CONVERSIONS FOR ITER.= 11  LAYER= 11  STEP=  1  PERIOD=   3   (ROW,COL)
    WET(  1, 22)   WET(  1, 23)   WET(  1, 25)   

 CELL CONVERSIONS FOR ITER.= 11  LAYER= 12  STEP=  1  PERIOD=   3   (ROW,COL)
    WET(  1, 26)   WET(  1, 27)   

 CELL CONVERSIONS FOR ITER.= 11  LAYER= 13  STEP=  1  PERIOD=   3   (ROW,COL)
    WET(  1, 28)   

 CELL CONVERSIONS FOR ITER.= 11  LAYER= 14  STEP=  1  PERIOD=   3   (ROW,COL)
    WET(  1, 33)   

 CELL CONVERSIONS FOR ITER.= 11  LAYER= 15  STEP=  1  PERIOD=   3   (ROW,COL)
    WET(  1, 34)   WET(  1, 37)   

 CELL CONVERSIONS FOR ITER.= 11  LAYER= 16  STEP=  1  PERIOD=   3   (ROW,COL)
    WET(  1, 39)   

 CELL CONVERSIONS FOR ITER.= 11  LAYER= 17  STEP=  1  PERIOD=   3   (ROW,COL)
    WET(  1, 40)   

 CELL CONVERSIONS FOR ITER.= 11  LAYER= 18  STEP=  1  PERIOD=   3   (ROW,COL)
    WET(  1, 45)   

 CELL CONVERSIONS FOR ITER.= 11  LAYER= 19  STEP=  1  PERIOD=   3   (ROW,COL)
    WET(  1, 46)   

 CELL CONVERSIONS FOR ITER.= 11  LAYER= 24  STEP=  1  PERIOD=   3   (ROW,COL)
    WET(  1, 64)   

 CELL CONVERSIONS FOR ITER.= 12  LAYER=  8  STEP=  1  PERIOD=   3   (ROW,COL)
    WET(  1, 11)   WET(  1, 13)   WET(  1, 15)   WET(  1, 17)   

 CELL CONVERSIONS FOR ITER.= 12  LAYER=  9  STEP=  1  PERIOD=   3   (ROW,COL)
    WET(  1, 12)   WET(  1, 14)   WET(  1, 16)   WET(  1, 18)   WET(  1, 19)   
    WET(  1, 21)   

 CELL CONVERSIONS FOR ITER.= 12  LAYER= 10  STEP=  1  PERIOD=   3   (ROW,COL)
    WET(  1, 22)   WET(  1, 23)   

 CELL CONVERSIONS FOR ITER.= 12  LAYER= 11  STEP=  1  PERIOD=   3   (ROW,COL)
    WET(  1, 24)   WET(  1, 27)   

 CELL CONVERSIONS FOR ITER.= 12  LAYER= 12  STEP=  1  PERIOD=   3   (ROW,COL)
    WET(  1, 28)   

 CELL CONVERSIONS FOR ITER.= 12  LAYER= 25  STEP=  1  PERIOD=   3   (ROW,COL)
    WET(  1, 69)   

 CELL CONVERSIONS FOR ITER.= 13  LAYER=  7  STEP=  1  PERIOD=   3   (ROW,COL)
    WET(  1, 13)   WET(  1, 15)   WET(  1, 17)   

 CELL CONVERSIONS FOR ITER.= 13  LAYER=  8  STEP=  1  PERIOD=   3   (ROW,COL)
    WET(  1, 12)   WET(  1, 14)   WET(  1, 16)   WET(  1, 18)   WET(  1, 19)   

 CELL CONVERSIONS FOR ITER.= 13  LAYER=  9  STEP=  1  PERIOD=   3   (ROW,COL)
    WET(  1, 20)   WET(  1, 23)   

 CELL CONVERSIONS FOR ITER.= 13  LAYER= 12  STEP=  1  PERIOD=   3   (ROW,COL)
    WET(  1, 29)   

 CELL CONVERSIONS FOR ITER.= 13  LAYER= 13  STEP=  1  PERIOD=   3   (ROW,COL)
    WET(  1, 30)   WET(  1, 33)   

 CELL CONVERSIONS FOR ITER.= 13  LAYER= 14  STEP=  1  PERIOD=   3   (ROW,COL)
    WET(  1, 34)   

 CELL CONVERSIONS FOR ITER.= 13  LAYER= 22  STEP=  1  PERIOD=   3   (ROW,COL)
    WET(  1, 58)   

 CELL CONVERSIONS FOR ITER.= 13  LAYER= 23  STEP=  1  PERIOD=   3   (ROW,COL)
    WET(  1, 63)   

 CELL CONVERSIONS FOR ITER.= 14  LAYER=  6  STEP=  1  PERIOD=   3   (ROW,COL)
    WET(  1, 13)   WET(  1, 15)   

 CELL CONVERSIONS FOR ITER.= 14  LAYER=  7  STEP=  1  PERIOD=   3   (ROW,COL)
    WET(  1, 12)   WET(  1, 14)   WET(  1, 16)   WET(  1, 19)   

 CELL CONVERSIONS FOR ITER.= 14  LAYER=  8  STEP=  1  PERIOD=   3   (ROW,COL)
    WET(  1, 20)   

 CELL CONVERSIONS FOR ITER.= 14  LAYER= 10  STEP=  1  PERIOD=   3   (ROW,COL)
    WET(  1, 24)   WET(  1, 25)   

 CELL CONVERSIONS FOR ITER.= 14  LAYER= 14  STEP=  1  PERIOD=   3   (ROW,COL)
    WET(  1, 35)   

 CELL CONVERSIONS FOR ITER.= 14  LAYER= 15  STEP=  1  PERIOD=   3   (ROW,COL)
    WET(  1, 39)   

 CELL CONVERSIONS FOR ITER.= 14  LAYER= 16  STEP=  1  PERIOD=   3   (ROW,COL)
    WET(  1, 40)   

 CELL CONVERSIONS FOR ITER.= 14  LAYER= 18  STEP=  1  PERIOD=   3   (ROW,COL)
    WET(  1, 46)   

 CELL CONVERSIONS FOR ITER.= 14  LAYER= 20  STEP=  1  PERIOD=   3   (ROW,COL)
    WET(  1, 52)   

 CELL CONVERSIONS FOR ITER.= 14  LAYER= 21  STEP=  1  PERIOD=   3   (ROW,COL)
    WET(  1, 57)   

 CELL CONVERSIONS FOR ITER.= 14  LAYER= 24  STEP=  1  PERIOD=   3   (ROW,COL)
    WET(  1, 65)   

 CELL CONVERSIONS FOR ITER.= 14  LAYER= 26  STEP=  1  PERIOD=   3   (ROW,COL)
    WET(  1, 71)   

 CELL CONVERSIONS FOR ITER.= 14  LAYER= 28  STEP=  1  PERIOD=   3   (ROW,COL)
    WET(  1, 76)   

 CELL CONVERSIONS FOR ITER.= 15  LAYER=  5  STEP=  1  PERIOD=   3   (ROW,COL)
    WET(  1, 13)   WET(  1, 15)   

 CELL CONVERSIONS FOR ITER.= 15  LAYER=  6  STEP=  1  PERIOD=   3   (ROW,COL)
    WET(  1, 12)   WET(  1, 14)   WET(  1, 16)   

 CELL CONVERSIONS FOR ITER.= 15  LAYER=  7  STEP=  1  PERIOD=   3   (ROW,COL)
    WET(  1, 18)   

 CELL CONVERSIONS FOR ITER.= 15  LAYER=  8  STEP=  1  PERIOD=   3   (ROW,COL)
    WET(  1, 21)   

 CELL CONVERSIONS FOR ITER.= 15  LAYER=  9  STEP=  1  PERIOD=   3   (ROW,COL)
    WET(  1, 22)   

 CELL CONVERSIONS FOR ITER.= 15  LAYER= 11  STEP=  1  PERIOD=   3   (ROW,COL)
    WET(  1, 26)   WET(  1, 29)   

 CELL CONVERSIONS FOR ITER.= 15  LAYER= 12  STEP=  1  PERIOD=   3   (ROW,COL)
    WET(  1, 30)   

 CELL CONVERSIONS FOR ITER.= 15  LAYER= 15  STEP=  1  PERIOD=   3   (ROW,COL)
    WET(  1, 36)   

 CELL CONVERSIONS FOR ITER.= 15  LAYER= 17  STEP=  1  PERIOD=   3   (ROW,COL)
    WET(  1, 45)   

 CELL CONVERSIONS FOR ITER.= 15  LAYER= 19  STEP=  1  PERIOD=   3   (ROW,COL)
    WET(  1, 51)   

 CELL CONVERSIONS FOR ITER.= 15  LAYER= 22  STEP=  1  PERIOD=   3   (ROW,COL)
    WET(  1, 59)   

 CELL CONVERSIONS FOR ITER.= 15  LAYER= 25  STEP=  1  PERIOD=   3   (ROW,COL)
    WET(  1, 66)   

 CELL CONVERSIONS FOR ITER.= 16  LAYER=  4  STEP=  1  PERIOD=   3   (ROW,COL)
    WET(  1, 13)   

 CELL CONVERSIONS FOR ITER.= 16  LAYER=  5  STEP=  1  PERIOD=   3   (ROW,COL)
    WET(  1, 12)   WET(  1, 14)   

 CELL CONVERSIONS FOR ITER.= 16  LAYER=  6  STEP=  1  PERIOD=   3   (ROW,COL)
    WET(  1, 17)   

 CELL CONVERSIONS FOR ITER.= 16  LAYER=  7  STEP=  1  PERIOD=   3   (ROW,COL)
    WET(  1, 21)   

 CELL CONVERSIONS FOR ITER.= 16  LAYER=  9  STEP=  1  PERIOD=   3   (ROW,COL)
    WET(  1, 25)   

 CELL CONVERSIONS FOR ITER.= 16  LAYER= 16  STEP=  1  PERIOD=   3   (ROW,COL)
    WET(  1, 41)   

 CELL CONVERSIONS FOR ITER.= 16  LAYER= 20  STEP=  1  PERIOD=   3   (ROW,COL)
    WET(  1, 53)   

 CELL CONVERSIONS FOR ITER.= 16  LAYER= 23  STEP=  1  PERIOD=   3   (ROW,COL)
    WET(  1, 60)   

 CELL CONVERSIONS FOR ITER.= 17  LAYER=  3  STEP=  1  PERIOD=   3   (ROW,COL)
    WET(  1, 13)   

 CELL CONVERSIONS FOR ITER.= 17  LAYER=  4  STEP=  1  PERIOD=   3   (ROW,COL)
    WET(  1, 14)   WET(  1, 15)   

 CELL CONVERSIONS FOR ITER.= 17  LAYER=  5  STEP=  1  PERIOD=   3   (ROW,COL)
    WET(  1, 16)   WET(  1, 17)   

 CELL CONVERSIONS FOR ITER.= 17  LAYER=  6  STEP=  1  PERIOD=   3   (ROW,COL)
    WET(  1, 18)   

 CELL CONVERSIONS FOR ITER.= 17  LAYER=  8  STEP=  1  PERIOD=   3   (ROW,COL)
    WET(  1, 22)   

 CELL CONVERSIONS FOR ITER.= 17  LAYER= 10  STEP=  1  PERIOD=   3   (ROW,COL)
    WET(  1, 26)   

 CELL CONVERSIONS FOR ITER.= 17  LAYER= 12  STEP=  1  PERIOD=   3   (ROW,COL)
    WET(  1, 31)   

 CELL CONVERSIONS FOR ITER.= 17  LAYER= 17  STEP=  1  PERIOD=   3   (ROW,COL)
    WET(  1, 42)   

 CELL CONVERSIONS FOR ITER.= 17  LAYER= 18  STEP=  1  PERIOD=   3   (ROW,COL)
    WET(  1, 47)   

 CELL CONVERSIONS FOR ITER.= 17  LAYER= 19  STEP=  1  PERIOD=   3   (ROW,COL)
    WET(  1, 48)   

 CELL CONVERSIONS FOR ITER.= 17  LAYER= 21  STEP=  1  PERIOD=   3   (ROW,COL)
    WET(  1, 54)   

 CELL CONVERSIONS FOR ITER.= 17  LAYER= 27  STEP=  1  PERIOD=   3   (ROW,COL)
    WET(  1, 72)   

 CELL CONVERSIONS FOR ITER.= 18  LAYER=  3  STEP=  1  PERIOD=   3   (ROW,COL)
    WET(  1, 15)   

 CELL CONVERSIONS FOR ITER.= 18  LAYER=  6  STEP=  1  PERIOD=   3   (ROW,COL)
    WET(  1, 19)   

 CELL CONVERSIONS FOR ITER.= 19  LAYER=  8  STEP=  1  PERIOD=   3   (ROW,COL)
    WET(  1, 23)   

 CELL CONVERSIONS FOR ITER.= 19  LAYER= 10  STEP=  1  PERIOD=   3   (ROW,COL)
    WET(  1, 27)   

 CELL CONVERSIONS FOR ITER.= 20  LAYER=  4  STEP=  1  PERIOD=   3   (ROW,COL)
    WET(  1, 16)   

 CELL CONVERSIONS FOR ITER.= 20  LAYER=  5  STEP=  1  PERIOD=   3   (ROW,COL)
    WET(  1, 19)   

 CELL CONVERSIONS FOR ITER.= 20  LAYER= 13  STEP=  1  PERIOD=   3   (ROW,COL)
    WET(  1, 32)   

 CELL CONVERSIONS FOR ITER.= 23  LAYER= 13  STEP=  1  PERIOD=   3   (ROW,COL)
    WET(  1, 35)   

 CELL CONVERSIONS FOR ITER.= 23  LAYER= 14  STEP=  1  PERIOD=   3   (ROW,COL)
    WET(  1, 36)   

 CELL CONVERSIONS FOR ITER.= 28  LAYER= 13  STEP=  1  PERIOD=   3   (ROW,COL)
    DRY(  1, 35)   

 OUTPUT CONTROL FOR STRESS PERIOD    3   TIME STEP    1
    PRINT BUDGET
    SAVE HEAD FOR ALL LAYERS
    SAVE DRAWDOWN FOR ALL LAYERS
    SAVE BUDGET
 UBDSV1 SAVING "         STORAGE" ON UNIT  40 AT TIME STEP  1, STRESS PERIOD   3
 UBDSV2 SAVING "   CONSTANT HEAD" ON UNIT  40 AT TIME STEP  1, STRESS PERIOD   3
 UBDSV1 SAVING "FLOW RIGHT FACE " ON UNIT  40 AT TIME STEP  1, STRESS PERIOD   3
 UBDSV1 SAVING "FLOW LOWER FACE " ON UNIT  40 AT TIME STEP  1, STRESS PERIOD   3
 UBDSV4 SAVING "          DRAINS" ON UNIT  40 AT TIME STEP  1, STRESS PERIOD   3
 UBDSV4 SAVING " HEAD DEP BOUNDS" ON UNIT  40 AT TIME STEP  1, STRESS PERIOD   3

 SAVING SATURATED THICKNESS AND FLOW TERMS ON UNIT  333 FOR MT3DMS
 BY THE LINK-MT3DMS PACKAGE V7 AT TIME STEP    1, STRESS PERIOD    3


 HEAD WILL BE SAVED ON UNIT    2 AT END OF TIME STEP    1, STRESS PERIOD    3

 DRAWDOWN WILL BE SAVED ON UNIT   13 AT END OF TIME STEP    1, STRESS PERIOD    3
1
  VOLUMETRIC BUDGET FOR ENTIRE MODEL AT END OF TIME STEP    1, STRESS PERIOD   3
  ------------------------------------------------------------------------------

     CUMULATIVE VOLUMES      L**3       RATES FOR THIS TIME STEP      L**3/T
     ------------------                 ------------------------

           IN:                                      IN:
           ---                                      ---
             STORAGE =          14.9091               STORAGE =           0.0000
       CONSTANT HEAD =           0.0000         CONSTANT HEAD =           0.0000
              DRAINS =           0.0000                DRAINS =           0.0000
     HEAD DEP BOUNDS =         427.0737       HEAD DEP BOUNDS =          55.6847

            TOTAL IN =         441.9828              TOTAL IN =          55.6847

          OUT:                                     OUT:
          ----                                     ----
             STORAGE =          42.6890               STORAGE =          42.6888
       CONSTANT HEAD =           0.0000         CONSTANT HEAD =           0.0000
              DRAINS =         399.2946                DRAINS =          12.9959
     HEAD DEP BOUNDS =           0.0000       HEAD DEP BOUNDS =           0.0000

           TOTAL OUT =         441.9836             TOTAL OUT =          55.6847

            IN - OUT =      -8.0037E-04              IN - OUT =       3.2210E-10

 PERCENT DISCREPANCY =          -0.00     PERCENT DISCREPANCY =           0.00






         TIME SUMMARY AT END OF TIME STEP    1 IN STRESS PERIOD    3
                    SECONDS     MINUTES      HOURS       DAYS        YEARS
                    -----------------------------------------------------------
   TIME STEP LENGTH  86400.      1440.0      24.000      1.0000     2.73785E-03
 STRESS PERIOD TIME  86400.      1440.0      24.000      1.0000     2.73785E-03
         TOTAL TIME 1.81440E+06  30240.      504.00      21.000     5.74949E-02
1
 
 SOLVING FOR HEAD 

 CELL CONVERSIONS FOR ITER.=  2  LAYER=  3  STEP=  2  PERIOD=   3   (ROW,COL)
    WET(  1, 14)   

 CELL CONVERSIONS FOR ITER.=  2  LAYER=  4  STEP=  2  PERIOD=   3   (ROW,COL)
    WET(  1, 17)   WET(  1, 19)   

 CELL CONVERSIONS FOR ITER.=  2  LAYER=  5  STEP=  2  PERIOD=   3   (ROW,COL)
    WET(  1, 18)   

 CELL CONVERSIONS FOR ITER.=  2  LAYER=  6  STEP=  2  PERIOD=   3   (ROW,COL)
    WET(  1, 21)   

 CELL CONVERSIONS FOR ITER.=  2  LAYER=  7  STEP=  2  PERIOD=   3   (ROW,COL)
    WET(  1, 20)   WET(  1, 22)   WET(  1, 23)   

 CELL CONVERSIONS FOR ITER.=  2  LAYER=  8  STEP=  2  PERIOD=   3   (ROW,COL)
    WET(  1, 25)   

 CELL CONVERSIONS FOR ITER.=  2  LAYER=  9  STEP=  2  PERIOD=   3   (ROW,COL)
    WET(  1, 24)   WET(  1, 26)   WET(  1, 27)   

 CELL CONVERSIONS FOR ITER.=  2  LAYER= 10  STEP=  2  PERIOD=   3   (ROW,COL)
    WET(  1, 29)   

 CELL CONVERSIONS FOR ITER.=  2  LAYER= 11  STEP=  2  PERIOD=   3   (ROW,COL)
    WET(  1, 28)   WET(  1, 30)   WET(  1, 31)   

 CELL CONVERSIONS FOR ITER.=  2  LAYER= 12  STEP=  2  PERIOD=   3   (ROW,COL)
    WET(  1, 32)   WET(  1, 33)   

 CELL CONVERSIONS FOR ITER.=  2  LAYER= 13  STEP=  2  PERIOD=   3   (ROW,COL)
    WET(  1, 34)   WET(  1, 35)   WET(  1, 36)   

 CELL CONVERSIONS FOR ITER.=  2  LAYER= 14  STEP=  2  PERIOD=   3   (ROW,COL)
    WET(  1, 37)   WET(  1, 39)   

 CELL CONVERSIONS FOR ITER.=  2  LAYER= 15  STEP=  2  PERIOD=   3   (ROW,COL)
    WET(  1, 38)   WET(  1, 40)   WET(  1, 41)   

 CELL CONVERSIONS FOR ITER.=  2  LAYER= 16  STEP=  2  PERIOD=   3   (ROW,COL)
    WET(  1, 42)   WET(  1, 43)   WET(  1, 45)   

 CELL CONVERSIONS FOR ITER.=  2  LAYER= 17  STEP=  2  PERIOD=   3   (ROW,COL)
    WET(  1, 44)   WET(  1, 46)   WET(  1, 47)   

 CELL CONVERSIONS FOR ITER.=  2  LAYER= 18  STEP=  2  PERIOD=   3   (ROW,COL)
    WET(  1, 48)   WET(  1, 49)   WET(  1, 51)   

 CELL CONVERSIONS FOR ITER.=  2  LAYER= 19  STEP=  2  PERIOD=   3   (ROW,COL)
    WET(  1, 50)   WET(  1, 52)   WET(  1, 53)   

 CELL CONVERSIONS FOR ITER.=  2  LAYER= 20  STEP=  2  PERIOD=   3   (ROW,COL)
    WET(  1, 54)   WET(  1, 55)   WET(  1, 57)   

 CELL CONVERSIONS FOR ITER.=  2  LAYER= 21  STEP=  2  PERIOD=   3   (ROW,COL)
    WET(  1, 56)   WET(  1, 58)   WET(  1, 59)   

 CELL CONVERSIONS FOR ITER.=  2  LAYER= 22  STEP=  2  PERIOD=   3   (ROW,COL)
    WET(  1, 60)   WET(  1, 61)   WET(  1, 63)   

 CELL CONVERSIONS FOR ITER.=  2  LAYER= 23  STEP=  2  PERIOD=   3   (ROW,COL)
    WET(  1, 62)   WET(  1, 64)   WET(  1, 65)   

 CELL CONVERSIONS FOR ITER.=  2  LAYER= 24  STEP=  2  PERIOD=   3   (ROW,COL)
    WET(  1, 66)   WET(  1, 67)   

 CELL CONVERSIONS FOR ITER.=  2  LAYER= 25  STEP=  2  PERIOD=   3   (ROW,COL)
    WET(  1, 68)   WET(  1, 70)   

 CELL CONVERSIONS FOR ITER.=  2  LAYER= 26  STEP=  2  PERIOD=   3   (ROW,COL)
    WET(  1, 72)   

 CELL CONVERSIONS FOR ITER.=  2  LAYER= 27  STEP=  2  PERIOD=   3   (ROW,COL)
    WET(  1, 74)   

 CELL CONVERSIONS FOR ITER.=  2  LAYER= 29  STEP=  2  PERIOD=   3   (ROW,COL)
    WET(  1, 78)   

 CELL CONVERSIONS FOR ITER.=  2  LAYER= 31  STEP=  2  PERIOD=   3   (ROW,COL)
    WET(  1, 82)   

 CELL CONVERSIONS FOR ITER.=  3  LAYER=  3  STEP=  2  PERIOD=   3   (ROW,COL)
    WET(  1, 17)   

 CELL CONVERSIONS FOR ITER.=  3  LAYER=  4  STEP=  2  PERIOD=   3   (ROW,COL)
    WET(  1, 18)   

 CELL CONVERSIONS FOR ITER.=  3  LAYER=  5  STEP=  2  PERIOD=   3   (ROW,COL)
    WET(  1, 21)   

 CELL CONVERSIONS FOR ITER.=  3  LAYER=  6  STEP=  2  PERIOD=   3   (ROW,COL)
    WET(  1, 20)   WET(  1, 22)   WET(  1, 23)   

 CELL CONVERSIONS FOR ITER.=  3  LAYER=  7  STEP=  2  PERIOD=   3   (ROW,COL)
    WET(  1, 25)   

 CELL CONVERSIONS FOR ITER.=  3  LAYER=  8  STEP=  2  PERIOD=   3   (ROW,COL)
    WET(  1, 24)   WET(  1, 26)   WET(  1, 27)   

 CELL CONVERSIONS FOR ITER.=  3  LAYER=  9  STEP=  2  PERIOD=   3   (ROW,COL)
    WET(  1, 29)   

 CELL CONVERSIONS FOR ITER.=  3  LAYER= 10  STEP=  2  PERIOD=   3   (ROW,COL)
    WET(  1, 28)   WET(  1, 30)   WET(  1, 31)   

 CELL CONVERSIONS FOR ITER.=  3  LAYER= 11  STEP=  2  PERIOD=   3   (ROW,COL)
    WET(  1, 32)   WET(  1, 33)   

 CELL CONVERSIONS FOR ITER.=  3  LAYER= 12  STEP=  2  PERIOD=   3   (ROW,COL)
    WET(  1, 34)   WET(  1, 35)   WET(  1, 36)   

 CELL CONVERSIONS FOR ITER.=  3  LAYER= 13  STEP=  2  PERIOD=   3   (ROW,COL)
    WET(  1, 37)   WET(  1, 39)   

 CELL CONVERSIONS FOR ITER.=  3  LAYER= 14  STEP=  2  PERIOD=   3   (ROW,COL)
    WET(  1, 38)   WET(  1, 40)   WET(  1, 41)   

 CELL CONVERSIONS FOR ITER.=  3  LAYER= 15  STEP=  2  PERIOD=   3   (ROW,COL)
    WET(  1, 42)   WET(  1, 43)   WET(  1, 45)   

 CELL CONVERSIONS FOR ITER.=  3  LAYER= 16  STEP=  2  PERIOD=   3   (ROW,COL)
    WET(  1, 44)   WET(  1, 46)   WET(  1, 47)   

 CELL CONVERSIONS FOR ITER.=  3  LAYER= 17  STEP=  2  PERIOD=   3   (ROW,COL)
    WET(  1, 48)   WET(  1, 49)   WET(  1, 51)   

 CELL CONVERSIONS FOR ITER.=  3  LAYER= 18  STEP=  2  PERIOD=   3   (ROW,COL)
    WET(  1, 50)   WET(  1, 52)   WET(  1, 53)   

 CELL CONVERSIONS FOR ITER.=  3  LAYER= 19  STEP=  2  PERIOD=   3   (ROW,COL)
    WET(  1, 54)   WET(  1, 55)   WET(  1, 57)   

 CELL CONVERSIONS FOR ITER.=  3  LAYER= 20  STEP=  2  PERIOD=   3   (ROW,COL)
    WET(  1, 56)   WET(  1, 58)   WET(  1, 59)   

 CELL CONVERSIONS FOR ITER.=  3  LAYER= 21  STEP=  2  PERIOD=   3   (ROW,COL)
    WET(  1, 60)   WET(  1, 61)   

 CELL CONVERSIONS FOR ITER.=  3  LAYER= 22  STEP=  2  PERIOD=   3   (ROW,COL)
    WET(  1, 62)   WET(  1, 64)   

 CELL CONVERSIONS FOR ITER.=  3  LAYER= 24  STEP=  2  PERIOD=   3   (ROW,COL)
    WET(  1, 68)   

 CELL CONVERSIONS FOR ITER.=  3  LAYER= 25  STEP=  2  PERIOD=   3   (ROW,COL)
    DRY(  1, 70)   

 CELL CONVERSIONS FOR ITER.=  4  LAYER=  7  STEP=  2  PERIOD=   3   (ROW,COL)
    WET(  1, 24)   WET(  1, 27)   

 CELL CONVERSIONS FOR ITER.=  4  LAYER=  9  STEP=  2  PERIOD=   3   (ROW,COL)
    WET(  1, 28)   WET(  1, 31)   

 CELL CONVERSIONS FOR ITER.=  4  LAYER= 10  STEP=  2  PERIOD=   3   (ROW,COL)
    WET(  1, 32)   WET(  1, 33)   

 CELL CONVERSIONS FOR ITER.=  4  LAYER= 11  STEP=  2  PERIOD=   3   (ROW,COL)
    WET(  1, 34)   WET(  1, 35)   

 CELL CONVERSIONS FOR ITER.=  4  LAYER= 12  STEP=  2  PERIOD=   3   (ROW,COL)
    WET(  1, 37)   

 CELL CONVERSIONS FOR ITER.=  4  LAYER= 13  STEP=  2  PERIOD=   3   (ROW,COL)
    WET(  1, 38)   WET(  1, 40)   WET(  1, 41)   

 CELL CONVERSIONS FOR ITER.=  4  LAYER= 14  STEP=  2  PERIOD=   3   (ROW,COL)
    WET(  1, 42)   WET(  1, 43)   

 CELL CONVERSIONS FOR ITER.=  4  LAYER= 15  STEP=  2  PERIOD=   3   (ROW,COL)
    WET(  1, 44)   WET(  1, 47)   

 CELL CONVERSIONS FOR ITER.=  4  LAYER= 16  STEP=  2  PERIOD=   3   (ROW,COL)
    WET(  1, 48)   WET(  1, 49)   

 CELL CONVERSIONS FOR ITER.=  4  LAYER= 17  STEP=  2  PERIOD=   3   (ROW,COL)
    WET(  1, 50)   WET(  1, 53)   

 CELL CONVERSIONS FOR ITER.=  4  LAYER= 18  STEP=  2  PERIOD=   3   (ROW,COL)
    WET(  1, 54)   WET(  1, 55)   

 CELL CONVERSIONS FOR ITER.=  5  LAYER=  3  STEP=  2  PERIOD=   3   (ROW,COL)
    DRY(  1, 17)   

 CELL CONVERSIONS FOR ITER.=  5  LAYER=  4  STEP=  2  PERIOD=   3   (ROW,COL)
    DRY(  1, 19)   

 CELL CONVERSIONS FOR ITER.=  5  LAYER=  8  STEP=  2  PERIOD=   3   (ROW,COL)
    WET(  1, 28)   

 CELL CONVERSIONS FOR ITER.=  5  LAYER= 11  STEP=  2  PERIOD=   3   (ROW,COL)
    WET(  1, 37)   

 CELL CONVERSIONS FOR ITER.=  5  LAYER= 12  STEP=  2  PERIOD=   3   (ROW,COL)
    WET(  1, 38)   

 CELL CONVERSIONS FOR ITER.=  5  LAYER= 13  STEP=  2  PERIOD=   3   (ROW,COL)
    WET(  1, 43)   

 CELL CONVERSIONS FOR ITER.=  5  LAYER= 14  STEP=  2  PERIOD=   3   (ROW,COL)
    WET(  1, 44)   

 CELL CONVERSIONS FOR ITER.=  5  LAYER= 19  STEP=  2  PERIOD=   3   (ROW,COL)
    WET(  1, 56)   

 CELL CONVERSIONS FOR ITER.=  5  LAYER= 20  STEP=  2  PERIOD=   3   (ROW,COL)
    WET(  1, 60)   

 CELL CONVERSIONS FOR ITER.=  6  LAYER= 12  STEP=  2  PERIOD=   3   (ROW,COL)
    WET(  1, 39)   

 CELL CONVERSIONS FOR ITER.=  6  LAYER= 15  STEP=  2  PERIOD=   3   (ROW,COL)
    WET(  1, 49)   

 CELL CONVERSIONS FOR ITER.=  6  LAYER= 16  STEP=  2  PERIOD=   3   (ROW,COL)
    WET(  1, 50)   

 CELL CONVERSIONS FOR ITER.=  7  LAYER= 14  STEP=  2  PERIOD=   3   (ROW,COL)
    WET(  1, 45)   

 CELL CONVERSIONS FOR ITER.=  8  LAYER= 15  STEP=  2  PERIOD=   3   (ROW,COL)
    DRY(  1, 49)   

 OUTPUT CONTROL FOR STRESS PERIOD    3   TIME STEP    2
    PRINT BUDGET
    SAVE HEAD FOR ALL LAYERS
    SAVE DRAWDOWN FOR ALL LAYERS
    SAVE BUDGET
 UBDSV1 SAVING "         STORAGE" ON UNIT  40 AT TIME STEP  2, STRESS PERIOD   3
 UBDSV2 SAVING "   CONSTANT HEAD" ON UNIT  40 AT TIME STEP  2, STRESS PERIOD   3
 UBDSV1 SAVING "FLOW RIGHT FACE " ON UNIT  40 AT TIME STEP  2, STRESS PERIOD   3
 UBDSV1 SAVING "FLOW LOWER FACE " ON UNIT  40 AT TIME STEP  2, STRESS PERIOD   3
 UBDSV4 SAVING "          DRAINS" ON UNIT  40 AT TIME STEP  2, STRESS PERIOD   3
 UBDSV4 SAVING " HEAD DEP BOUNDS" ON UNIT  40 AT TIME STEP  2, STRESS PERIOD   3

 SAVING SATURATED THICKNESS AND FLOW TERMS ON UNIT  333 FOR MT3DMS
 BY THE LINK-MT3DMS PACKAGE V7 AT TIME STEP    2, STRESS PERIOD    3


 HEAD WILL BE SAVED ON UNIT    2 AT END OF TIME STEP    2, STRESS PERIOD    3

 DRAWDOWN WILL BE SAVED ON UNIT   13 AT END OF TIME STEP    2, STRESS PERIOD    3
1
  VOLUMETRIC BUDGET FOR ENTIRE MODEL AT END OF TIME STEP    2, STRESS PERIOD   3
  ------------------------------------------------------------------------------

     CUMULATIVE VOLUMES      L**3       RATES FOR THIS TIME STEP      L**3/T
     ------------------                 ------------------------

           IN:                                      IN:
           ---                                      ---
             STORAGE =          14.9091               STORAGE =           0.0000
       CONSTANT HEAD =           0.0000         CONSTANT HEAD =           0.0000
              DRAINS =           0.0000                DRAINS =           0.0000
     HEAD DEP BOUNDS =         461.0857       HEAD DEP BOUNDS =          34.0120

            TOTAL IN =         475.9948              TOTAL IN =          34.0120

          OUT:                                     OUT:
          ----                                     ----
             STORAGE =          54.5899               STORAGE =          11.9008
       CONSTANT HEAD =           0.0000         CONSTANT HEAD =           0.0000
              DRAINS =         421.4057                DRAINS =          22.1112
     HEAD DEP BOUNDS =           0.0000       HEAD DEP BOUNDS =           0.0000

           TOTAL OUT =         475.9956             TOTAL OUT =          34.0120

            IN - OUT =      -8.0037E-04              IN - OUT =       2.2877E-10

 PERCENT DISCREPANCY =          -0.00     PERCENT DISCREPANCY =           0.00






         TIME SUMMARY AT END OF TIME STEP    2 IN STRESS PERIOD    3
                    SECONDS     MINUTES      HOURS       DAYS        YEARS
                    -----------------------------------------------------------
   TIME STEP LENGTH  86400.      1440.0      24.000      1.0000     2.73785E-03
 STRESS PERIOD TIME 1.72800E+05  2880.0      48.000      2.0000     5.47570E-03
         TOTAL TIME 1.90080E+06  31680.      528.00      22.000     6.02327E-02
1
 
 SOLVING FOR HEAD 

 CELL CONVERSIONS FOR ITER.=  2  LAYER=  3  STEP=  3  PERIOD=   3   (ROW,COL)
    WET(  1, 17)   

 CELL CONVERSIONS FOR ITER.=  2  LAYER=  4  STEP=  3  PERIOD=   3   (ROW,COL)
    WET(  1, 19)   

 CELL CONVERSIONS FOR ITER.=  2  LAYER=  5  STEP=  3  PERIOD=   3   (ROW,COL)
    WET(  1, 20)   WET(  1, 23)   

 CELL CONVERSIONS FOR ITER.=  2  LAYER=  6  STEP=  3  PERIOD=   3   (ROW,COL)
    WET(  1, 24)   

 CELL CONVERSIONS FOR ITER.=  2  LAYER=  7  STEP=  3  PERIOD=   3   (ROW,COL)
    WET(  1, 26)   

 CELL CONVERSIONS FOR ITER.=  2  LAYER=  8  STEP=  3  PERIOD=   3   (ROW,COL)
    WET(  1, 29)   

 CELL CONVERSIONS FOR ITER.=  2  LAYER=  9  STEP=  3  PERIOD=   3   (ROW,COL)
    WET(  1, 30)   WET(  1, 32)   WET(  1, 33)   

 CELL CONVERSIONS FOR ITER.=  2  LAYER= 10  STEP=  3  PERIOD=   3   (ROW,COL)
    WET(  1, 34)   WET(  1, 35)   

 CELL CONVERSIONS FOR ITER.=  2  LAYER= 11  STEP=  3  PERIOD=   3   (ROW,COL)
    WET(  1, 36)   WET(  1, 38)   WET(  1, 39)   

 CELL CONVERSIONS FOR ITER.=  2  LAYER= 12  STEP=  3  PERIOD=   3   (ROW,COL)
    WET(  1, 40)   WET(  1, 41)   

 CELL CONVERSIONS FOR ITER.=  2  LAYER= 13  STEP=  3  PERIOD=   3   (ROW,COL)
    WET(  1, 42)   WET(  1, 45)   

 CELL CONVERSIONS FOR ITER.=  2  LAYER= 14  STEP=  3  PERIOD=   3   (ROW,COL)
    WET(  1, 47)   

 CELL CONVERSIONS FOR ITER.=  2  LAYER= 15  STEP=  3  PERIOD=   3   (ROW,COL)
    WET(  1, 46)   WET(  1, 48)   WET(  1, 49)   

 CELL CONVERSIONS FOR ITER.=  2  LAYER= 16  STEP=  3  PERIOD=   3   (ROW,COL)
    WET(  1, 51)   

 CELL CONVERSIONS FOR ITER.=  2  LAYER= 17  STEP=  3  PERIOD=   3   (ROW,COL)
    WET(  1, 52)   

 CELL CONVERSIONS FOR ITER.=  2  LAYER= 18  STEP=  3  PERIOD=   3   (ROW,COL)
    WET(  1, 56)   

 CELL CONVERSIONS FOR ITER.=  2  LAYER= 19  STEP=  3  PERIOD=   3   (ROW,COL)
    WET(  1, 58)   

 CELL CONVERSIONS FOR ITER.=  2  LAYER= 21  STEP=  3  PERIOD=   3   (ROW,COL)
    WET(  1, 62)   

 CELL CONVERSIONS FOR ITER.=  2  LAYER= 23  STEP=  3  PERIOD=   3   (ROW,COL)
    WET(  1, 66)   

 CELL CONVERSIONS FOR ITER.=  2  LAYER= 25  STEP=  3  PERIOD=   3   (ROW,COL)
    WET(  1, 70)   

 CELL CONVERSIONS FOR ITER.=  3  LAYER=  6  STEP=  3  PERIOD=   3   (ROW,COL)
    WET(  1, 25)   

 CELL CONVERSIONS FOR ITER.=  3  LAYER=  7  STEP=  3  PERIOD=   3   (ROW,COL)
    WET(  1, 29)   

 CELL CONVERSIONS FOR ITER.=  3  LAYER=  8  STEP=  3  PERIOD=   3   (ROW,COL)
    WET(  1, 30)   

 CELL CONVERSIONS FOR ITER.=  3  LAYER=  9  STEP=  3  PERIOD=   3   (ROW,COL)
    WET(  1, 35)   

 CELL CONVERSIONS FOR ITER.=  3  LAYER= 10  STEP=  3  PERIOD=   3   (ROW,COL)
    WET(  1, 36)   

 CELL CONVERSIONS FOR ITER.=  3  LAYER= 11  STEP=  3  PERIOD=   3   (ROW,COL)
    WET(  1, 41)   DRY(  1, 38)   

 CELL CONVERSIONS FOR ITER.=  3  LAYER= 14  STEP=  3  PERIOD=   3   (ROW,COL)
    WET(  1, 46)   DRY(  1, 47)   

 CELL CONVERSIONS FOR ITER.=  3  LAYER= 19  STEP=  3  PERIOD=   3   (ROW,COL)
    DRY(  1, 58)   

 CELL CONVERSIONS FOR ITER.=  3  LAYER= 21  STEP=  3  PERIOD=   3   (ROW,COL)
    DRY(  1, 62)   

 CELL CONVERSIONS FOR ITER.=  4  LAYER=  6  STEP=  3  PERIOD=   3   (ROW,COL)
    DRY(  1, 25)   

 CELL CONVERSIONS FOR ITER.=  4  LAYER=  9  STEP=  3  PERIOD=   3   (ROW,COL)
    DRY(  1, 32)   

 CELL CONVERSIONS FOR ITER.=  4  LAYER= 12  STEP=  3  PERIOD=   3   (ROW,COL)
    WET(  1, 42)   

 CELL CONVERSIONS FOR ITER.=  4  LAYER= 14  STEP=  3  PERIOD=   3   (ROW,COL)
    WET(  1, 47)   

 CELL CONVERSIONS FOR ITER.=  4  LAYER= 16  STEP=  3  PERIOD=   3   (ROW,COL)
    WET(  1, 52)   

 CELL CONVERSIONS FOR ITER.=  5  LAYER=  8  STEP=  3  PERIOD=   3   (ROW,COL)
    WET(  1, 31)   

 CELL CONVERSIONS FOR ITER.=  6  LAYER=  6  STEP=  3  PERIOD=   3   (ROW,COL)
    WET(  1, 25)   

 CELL CONVERSIONS FOR ITER.=  6  LAYER=  7  STEP=  3  PERIOD=   3   (ROW,COL)
    DRY(  1, 26)   

 CELL CONVERSIONS FOR ITER.=  6  LAYER= 11  STEP=  3  PERIOD=   3   (ROW,COL)
    DRY(  1, 41)   

 OUTPUT CONTROL FOR STRESS PERIOD    3   TIME STEP    3
    PRINT BUDGET
    SAVE HEAD FOR ALL LAYERS
    SAVE DRAWDOWN FOR ALL LAYERS
    SAVE BUDGET
 UBDSV1 SAVING "         STORAGE" ON UNIT  40 AT TIME STEP  3, STRESS PERIOD   3
 UBDSV2 SAVING "   CONSTANT HEAD" ON UNIT  40 AT TIME STEP  3, STRESS PERIOD   3
 UBDSV1 SAVING "FLOW RIGHT FACE " ON UNIT  40 AT TIME STEP  3, STRESS PERIOD   3
 UBDSV1 SAVING "FLOW LOWER FACE " ON UNIT  40 AT TIME STEP  3, STRESS PERIOD   3
 UBDSV4 SAVING "          DRAINS" ON UNIT  40 AT TIME STEP  3, STRESS PERIOD   3
 UBDSV4 SAVING " HEAD DEP BOUNDS" ON UNIT  40 AT TIME STEP  3, STRESS PERIOD   3

 SAVING SATURATED THICKNESS AND FLOW TERMS ON UNIT  333 FOR MT3DMS
 BY THE LINK-MT3DMS PACKAGE V7 AT TIME STEP    3, STRESS PERIOD    3


 HEAD WILL BE SAVED ON UNIT    2 AT END OF TIME STEP    3, STRESS PERIOD    3

 DRAWDOWN WILL BE SAVED ON UNIT   13 AT END OF TIME STEP    3, STRESS PERIOD    3
1
  VOLUMETRIC BUDGET FOR ENTIRE MODEL AT END OF TIME STEP    3, STRESS PERIOD   3
  ------------------------------------------------------------------------------

     CUMULATIVE VOLUMES      L**3       RATES FOR THIS TIME STEP      L**3/T
     ------------------                 ------------------------

           IN:                                      IN:
           ---                                      ---
             STORAGE =          14.9091               STORAGE =       2.3242E-06
       CONSTANT HEAD =           0.0000         CONSTANT HEAD =           0.0000
              DRAINS =           0.0000                DRAINS =           0.0000
     HEAD DEP BOUNDS =         491.9576       HEAD DEP BOUNDS =          30.8719

            TOTAL IN =         506.8667              TOTAL IN =          30.8719

          OUT:                                     OUT:
          ----                                     ----
             STORAGE =          57.6303               STORAGE =           3.0404
       CONSTANT HEAD =           0.0000         CONSTANT HEAD =           0.0000
              DRAINS =         449.2372                DRAINS =          27.8315
     HEAD DEP BOUNDS =           0.0000       HEAD DEP BOUNDS =           0.0000

           TOTAL OUT =         506.8675             TOTAL OUT =          30.8719

            IN - OUT =      -8.0037E-04              IN - OUT =      -1.2495E-10

 PERCENT DISCREPANCY =          -0.00     PERCENT DISCREPANCY =          -0.00






         TIME SUMMARY AT END OF TIME STEP    3 IN STRESS PERIOD    3
                    SECONDS     MINUTES      HOURS       DAYS        YEARS
                    -----------------------------------------------------------
   TIME STEP LENGTH  86400.      1440.0      24.000      1.0000     2.73785E-03
 STRESS PERIOD TIME 2.59200E+05  4320.0      72.000      3.0000     8.21355E-03
         TOTAL TIME 1.98720E+06  33120.      552.00      23.000     6.29706E-02
1
 
 SOLVING FOR HEAD 

 CELL CONVERSIONS FOR ITER.=  2  LAYER=  7  STEP=  4  PERIOD=   3   (ROW,COL)
    WET(  1, 26)   

 CELL CONVERSIONS FOR ITER.=  2  LAYER=  9  STEP=  4  PERIOD=   3   (ROW,COL)
    WET(  1, 32)   

 CELL CONVERSIONS FOR ITER.=  2  LAYER= 10  STEP=  4  PERIOD=   3   (ROW,COL)
    WET(  1, 37)   

 CELL CONVERSIONS FOR ITER.=  2  LAYER= 11  STEP=  4  PERIOD=   3   (ROW,COL)
    WET(  1, 38)   WET(  1, 41)   

 CELL CONVERSIONS FOR ITER.=  2  LAYER= 12  STEP=  4  PERIOD=   3   (ROW,COL)
    WET(  1, 43)   

 CELL CONVERSIONS FOR ITER.=  2  LAYER= 21  STEP=  4  PERIOD=   3   (ROW,COL)
    WET(  1, 62)   

 OUTPUT CONTROL FOR STRESS PERIOD    3   TIME STEP    4
    PRINT BUDGET
    SAVE HEAD FOR ALL LAYERS
    SAVE DRAWDOWN FOR ALL LAYERS
    SAVE BUDGET
 UBDSV1 SAVING "         STORAGE" ON UNIT  40 AT TIME STEP  4, STRESS PERIOD   3
 UBDSV2 SAVING "   CONSTANT HEAD" ON UNIT  40 AT TIME STEP  4, STRESS PERIOD   3
 UBDSV1 SAVING "FLOW RIGHT FACE " ON UNIT  40 AT TIME STEP  4, STRESS PERIOD   3
 UBDSV1 SAVING "FLOW LOWER FACE " ON UNIT  40 AT TIME STEP  4, STRESS PERIOD   3
 UBDSV4 SAVING "          DRAINS" ON UNIT  40 AT TIME STEP  4, STRESS PERIOD   3
 UBDSV4 SAVING " HEAD DEP BOUNDS" ON UNIT  40 AT TIME STEP  4, STRESS PERIOD   3

 SAVING SATURATED THICKNESS AND FLOW TERMS ON UNIT  333 FOR MT3DMS
 BY THE LINK-MT3DMS PACKAGE V7 AT TIME STEP    4, STRESS PERIOD    3


 HEAD WILL BE SAVED ON UNIT    2 AT END OF TIME STEP    4, STRESS PERIOD    3

 DRAWDOWN WILL BE SAVED ON UNIT   13 AT END OF TIME STEP    4, STRESS PERIOD    3
1
  VOLUMETRIC BUDGET FOR ENTIRE MODEL AT END OF TIME STEP    4, STRESS PERIOD   3
  ------------------------------------------------------------------------------

     CUMULATIVE VOLUMES      L**3       RATES FOR THIS TIME STEP      L**3/T
     ------------------                 ------------------------

           IN:                                      IN:
           ---                                      ---
             STORAGE =          14.9095               STORAGE =       3.8967E-04
       CONSTANT HEAD =           0.0000         CONSTANT HEAD =           0.0000
              DRAINS =           0.0000                DRAINS =           0.0000
     HEAD DEP BOUNDS =         522.0898       HEAD DEP BOUNDS =          30.1322

            TOTAL IN =         536.9993              TOTAL IN =          30.1326

          OUT:                                     OUT:
          ----                                     ----
             STORAGE =          58.3750               STORAGE =           0.7448
       CONSTANT HEAD =           0.0000         CONSTANT HEAD =           0.0000
              DRAINS =         478.6250                DRAINS =          29.3878
     HEAD DEP BOUNDS =           0.0000       HEAD DEP BOUNDS =           0.0000

           TOTAL OUT =         537.0001             TOTAL OUT =          30.1326

            IN - OUT =      -8.0037E-04              IN - OUT =      -2.9314E-10

 PERCENT DISCREPANCY =          -0.00     PERCENT DISCREPANCY =          -0.00






         TIME SUMMARY AT END OF TIME STEP    4 IN STRESS PERIOD    3
                    SECONDS     MINUTES      HOURS       DAYS        YEARS
                    -----------------------------------------------------------
   TIME STEP LENGTH  86400.      1440.0      24.000      1.0000     2.73785E-03
 STRESS PERIOD TIME 3.45600E+05  5760.0      96.000      4.0000     1.09514E-02
         TOTAL TIME 2.07360E+06  34560.      576.00      24.000     6.57084E-02
1
 
 SOLVING FOR HEAD 

 CELL CONVERSIONS FOR ITER.=  2  LAYER= 13  STEP=  5  PERIOD=   3   (ROW,COL)
    WET(  1, 44)   

 CELL CONVERSIONS FOR ITER.=  2  LAYER= 14  STEP=  5  PERIOD=   3   (ROW,COL)
    WET(  1, 48)   

 OUTPUT CONTROL FOR STRESS PERIOD    3   TIME STEP    5
    PRINT BUDGET
    SAVE HEAD FOR ALL LAYERS
    SAVE DRAWDOWN FOR ALL LAYERS
    SAVE BUDGET
 UBDSV1 SAVING "         STORAGE" ON UNIT  40 AT TIME STEP  5, STRESS PERIOD   3
 UBDSV2 SAVING "   CONSTANT HEAD" ON UNIT  40 AT TIME STEP  5, STRESS PERIOD   3
 UBDSV1 SAVING "FLOW RIGHT FACE " ON UNIT  40 AT TIME STEP  5, STRESS PERIOD   3
 UBDSV1 SAVING "FLOW LOWER FACE " ON UNIT  40 AT TIME STEP  5, STRESS PERIOD   3
 UBDSV4 SAVING "          DRAINS" ON UNIT  40 AT TIME STEP  5, STRESS PERIOD   3
 UBDSV4 SAVING " HEAD DEP BOUNDS" ON UNIT  40 AT TIME STEP  5, STRESS PERIOD   3

 SAVING SATURATED THICKNESS AND FLOW TERMS ON UNIT  333 FOR MT3DMS
 BY THE LINK-MT3DMS PACKAGE V7 AT TIME STEP    5, STRESS PERIOD    3


 HEAD WILL BE SAVED ON UNIT    2 AT END OF TIME STEP    5, STRESS PERIOD    3

 DRAWDOWN WILL BE SAVED ON UNIT   13 AT END OF TIME STEP    5, STRESS PERIOD    3
1
  VOLUMETRIC BUDGET FOR ENTIRE MODEL AT END OF TIME STEP    5, STRESS PERIOD   3
  ------------------------------------------------------------------------------

     CUMULATIVE VOLUMES      L**3       RATES FOR THIS TIME STEP      L**3/T
     ------------------                 ------------------------

           IN:                                      IN:
           ---                                      ---
             STORAGE =          14.9099               STORAGE =       4.5148E-04
       CONSTANT HEAD =           0.0000         CONSTANT HEAD =           0.0000
              DRAINS =           0.0000                DRAINS =           0.0000
     HEAD DEP BOUNDS =         552.0322       HEAD DEP BOUNDS =          29.9424

            TOTAL IN =         566.9421              TOTAL IN =          29.9428

          OUT:                                     OUT:
          ----                                     ----
             STORAGE =          58.5582               STORAGE =           0.1831
       CONSTANT HEAD =           0.0000         CONSTANT HEAD =           0.0000
              DRAINS =         508.3847                DRAINS =          29.7597
     HEAD DEP BOUNDS =           0.0000       HEAD DEP BOUNDS =           0.0000

           TOTAL OUT =         566.9429             TOTAL OUT =          29.9428

            IN - OUT =      -8.0037E-04              IN - OUT =      -3.3028E-10

 PERCENT DISCREPANCY =          -0.00     PERCENT DISCREPANCY =          -0.00






         TIME SUMMARY AT END OF TIME STEP    5 IN STRESS PERIOD    3
                    SECONDS     MINUTES      HOURS       DAYS        YEARS
                    -----------------------------------------------------------
   TIME STEP LENGTH  86400.      1440.0      24.000      1.0000     2.73785E-03
 STRESS PERIOD TIME 4.32000E+05  7200.0      120.00      5.0000     1.36893E-02
         TOTAL TIME 2.16000E+06  36000.      600.00      25.000     6.84463E-02
1
 
 SOLVING FOR HEAD 

 OUTPUT CONTROL FOR STRESS PERIOD    3   TIME STEP    6
    PRINT BUDGET
    SAVE HEAD FOR ALL LAYERS
    SAVE DRAWDOWN FOR ALL LAYERS
    SAVE BUDGET
 UBDSV1 SAVING "         STORAGE" ON UNIT  40 AT TIME STEP  6, STRESS PERIOD   3
 UBDSV2 SAVING "   CONSTANT HEAD" ON UNIT  40 AT TIME STEP  6, STRESS PERIOD   3
 UBDSV1 SAVING "FLOW RIGHT FACE " ON UNIT  40 AT TIME STEP  6, STRESS PERIOD   3
 UBDSV1 SAVING "FLOW LOWER FACE " ON UNIT  40 AT TIME STEP  6, STRESS PERIOD   3
 UBDSV4 SAVING "          DRAINS" ON UNIT  40 AT TIME STEP  6, STRESS PERIOD   3
 UBDSV4 SAVING " HEAD DEP BOUNDS" ON UNIT  40 AT TIME STEP  6, STRESS PERIOD   3

 SAVING SATURATED THICKNESS AND FLOW TERMS ON UNIT  333 FOR MT3DMS
 BY THE LINK-MT3DMS PACKAGE V7 AT TIME STEP    6, STRESS PERIOD    3


 HEAD WILL BE SAVED ON UNIT    2 AT END OF TIME STEP    6, STRESS PERIOD    3

 DRAWDOWN WILL BE SAVED ON UNIT   13 AT END OF TIME STEP    6, STRESS PERIOD    3
1
  VOLUMETRIC BUDGET FOR ENTIRE MODEL AT END OF TIME STEP    6, STRESS PERIOD   3
  ------------------------------------------------------------------------------

     CUMULATIVE VOLUMES      L**3       RATES FOR THIS TIME STEP      L**3/T
     ------------------                 ------------------------

           IN:                                      IN:
           ---                                      ---
             STORAGE =          14.9099               STORAGE =       1.6953E-08
       CONSTANT HEAD =           0.0000         CONSTANT HEAD =           0.0000
              DRAINS =           0.0000                DRAINS =           0.0000
     HEAD DEP BOUNDS =         581.9242       HEAD DEP BOUNDS =          29.8920

            TOTAL IN =         596.8341              TOTAL IN =          29.8920

          OUT:                                     OUT:
          ----                                     ----
             STORAGE =          58.6036               STORAGE =       4.5429E-02
       CONSTANT HEAD =           0.0000         CONSTANT HEAD =           0.0000
              DRAINS =         538.2313                DRAINS =          29.8466
     HEAD DEP BOUNDS =           0.0000       HEAD DEP BOUNDS =           0.0000

           TOTAL OUT =         596.8349             TOTAL OUT =          29.8920

            IN - OUT =      -8.0037E-04              IN - OUT =      -1.9534E-10

 PERCENT DISCREPANCY =          -0.00     PERCENT DISCREPANCY =          -0.00






         TIME SUMMARY AT END OF TIME STEP    6 IN STRESS PERIOD    3
                    SECONDS     MINUTES      HOURS       DAYS        YEARS
                    -----------------------------------------------------------
   TIME STEP LENGTH  86400.      1440.0      24.000      1.0000     2.73785E-03
 STRESS PERIOD TIME 5.18400E+05  8640.0      144.00      6.0000     1.64271E-02
         TOTAL TIME 2.24640E+06  37440.      624.00      26.000     7.11841E-02
1
 
 SOLVING FOR HEAD 

 OUTPUT CONTROL FOR STRESS PERIOD    3   TIME STEP    7
    PRINT BUDGET
    SAVE HEAD FOR ALL LAYERS
    SAVE DRAWDOWN FOR ALL LAYERS
    SAVE BUDGET
 UBDSV1 SAVING "         STORAGE" ON UNIT  40 AT TIME STEP  7, STRESS PERIOD   3
 UBDSV2 SAVING "   CONSTANT HEAD" ON UNIT  40 AT TIME STEP  7, STRESS PERIOD   3
 UBDSV1 SAVING "FLOW RIGHT FACE " ON UNIT  40 AT TIME STEP  7, STRESS PERIOD   3
 UBDSV1 SAVING "FLOW LOWER FACE " ON UNIT  40 AT TIME STEP  7, STRESS PERIOD   3
 UBDSV4 SAVING "          DRAINS" ON UNIT  40 AT TIME STEP  7, STRESS PERIOD   3
 UBDSV4 SAVING " HEAD DEP BOUNDS" ON UNIT  40 AT TIME STEP  7, STRESS PERIOD   3

 SAVING SATURATED THICKNESS AND FLOW TERMS ON UNIT  333 FOR MT3DMS
 BY THE LINK-MT3DMS PACKAGE V7 AT TIME STEP    7, STRESS PERIOD    3


 HEAD WILL BE SAVED ON UNIT    2 AT END OF TIME STEP    7, STRESS PERIOD    3

 DRAWDOWN WILL BE SAVED ON UNIT   13 AT END OF TIME STEP    7, STRESS PERIOD    3
1
  VOLUMETRIC BUDGET FOR ENTIRE MODEL AT END OF TIME STEP    7, STRESS PERIOD   3
  ------------------------------------------------------------------------------

     CUMULATIVE VOLUMES      L**3       RATES FOR THIS TIME STEP      L**3/T
     ------------------                 ------------------------

           IN:                                      IN:
           ---                                      ---
             STORAGE =          14.9099               STORAGE =       4.5854E-09
       CONSTANT HEAD =           0.0000         CONSTANT HEAD =           0.0000
              DRAINS =           0.0000                DRAINS =           0.0000
     HEAD DEP BOUNDS =         611.8029       HEAD DEP BOUNDS =          29.8787

            TOTAL IN =         626.7129              TOTAL IN =          29.8787

          OUT:                                     OUT:
          ----                                     ----
             STORAGE =          58.6152               STORAGE =       1.1628E-02
       CONSTANT HEAD =           0.0000         CONSTANT HEAD =           0.0000
              DRAINS =         568.0984                DRAINS =          29.8671
     HEAD DEP BOUNDS =           0.0000       HEAD DEP BOUNDS =           0.0000

           TOTAL OUT =         626.7137             TOTAL OUT =          29.8787

            IN - OUT =      -8.0037E-04              IN - OUT =       3.0622E-10

 PERCENT DISCREPANCY =          -0.00     PERCENT DISCREPANCY =           0.00






         TIME SUMMARY AT END OF TIME STEP    7 IN STRESS PERIOD    3
                    SECONDS     MINUTES      HOURS       DAYS        YEARS
                    -----------------------------------------------------------
   TIME STEP LENGTH  86400.      1440.0      24.000      1.0000     2.73785E-03
 STRESS PERIOD TIME 6.04800E+05  10080.      168.00      7.0000     1.91650E-02
         TOTAL TIME 2.33280E+06  38880.      648.00      27.000     7.39220E-02
1
 
 SOLVING FOR HEAD 

 OUTPUT CONTROL FOR STRESS PERIOD    3   TIME STEP    8
    PRINT BUDGET
    SAVE HEAD FOR ALL LAYERS
    SAVE DRAWDOWN FOR ALL LAYERS
    SAVE BUDGET
 UBDSV1 SAVING "         STORAGE" ON UNIT  40 AT TIME STEP  8, STRESS PERIOD   3
 UBDSV2 SAVING "   CONSTANT HEAD" ON UNIT  40 AT TIME STEP  8, STRESS PERIOD   3
 UBDSV1 SAVING "FLOW RIGHT FACE " ON UNIT  40 AT TIME STEP  8, STRESS PERIOD   3
 UBDSV1 SAVING "FLOW LOWER FACE " ON UNIT  40 AT TIME STEP  8, STRESS PERIOD   3
 UBDSV4 SAVING "          DRAINS" ON UNIT  40 AT TIME STEP  8, STRESS PERIOD   3
 UBDSV4 SAVING " HEAD DEP BOUNDS" ON UNIT  40 AT TIME STEP  8, STRESS PERIOD   3

 SAVING SATURATED THICKNESS AND FLOW TERMS ON UNIT  333 FOR MT3DMS
 BY THE LINK-MT3DMS PACKAGE V7 AT TIME STEP    8, STRESS PERIOD    3


 HEAD WILL BE SAVED ON UNIT    2 AT END OF TIME STEP    8, STRESS PERIOD    3

 DRAWDOWN WILL BE SAVED ON UNIT   13 AT END OF TIME STEP    8, STRESS PERIOD    3
1
  VOLUMETRIC BUDGET FOR ENTIRE MODEL AT END OF TIME STEP    8, STRESS PERIOD   3
  ------------------------------------------------------------------------------

     CUMULATIVE VOLUMES      L**3       RATES FOR THIS TIME STEP      L**3/T
     ------------------                 ------------------------

           IN:                                      IN:
           ---                                      ---
             STORAGE =          14.9099               STORAGE =       1.2289E-09
       CONSTANT HEAD =           0.0000         CONSTANT HEAD =           0.0000
              DRAINS =           0.0000                DRAINS =           0.0000
     HEAD DEP BOUNDS =         641.6782       HEAD DEP BOUNDS =          29.8752

            TOTAL IN =         656.5881              TOTAL IN =          29.8752

          OUT:                                     OUT:
          ----                                     ----
             STORAGE =          58.6182               STORAGE =       3.0172E-03
       CONSTANT HEAD =           0.0000         CONSTANT HEAD =           0.0000
              DRAINS =         597.9707                DRAINS =          29.8722
     HEAD DEP BOUNDS =           0.0000       HEAD DEP BOUNDS =           0.0000

           TOTAL OUT =         656.5889             TOTAL OUT =          29.8752

            IN - OUT =      -8.0015E-04              IN - OUT =       2.2307E-07

 PERCENT DISCREPANCY =          -0.00     PERCENT DISCREPANCY =           0.00






         TIME SUMMARY AT END OF TIME STEP    8 IN STRESS PERIOD    3
                    SECONDS     MINUTES      HOURS       DAYS        YEARS
                    -----------------------------------------------------------
   TIME STEP LENGTH  86400.      1440.0      24.000      1.0000     2.73785E-03
 STRESS PERIOD TIME 6.91200E+05  11520.      192.00      8.0000     2.19028E-02
         TOTAL TIME 2.41920E+06  40320.      672.00      28.000     7.66598E-02
1
 
 SOLVING FOR HEAD 

 OUTPUT CONTROL FOR STRESS PERIOD    3   TIME STEP    9
    PRINT BUDGET
    SAVE HEAD FOR ALL LAYERS
    SAVE DRAWDOWN FOR ALL LAYERS
    SAVE BUDGET
 UBDSV1 SAVING "         STORAGE" ON UNIT  40 AT TIME STEP  9, STRESS PERIOD   3
 UBDSV2 SAVING "   CONSTANT HEAD" ON UNIT  40 AT TIME STEP  9, STRESS PERIOD   3
 UBDSV1 SAVING "FLOW RIGHT FACE " ON UNIT  40 AT TIME STEP  9, STRESS PERIOD   3
 UBDSV1 SAVING "FLOW LOWER FACE " ON UNIT  40 AT TIME STEP  9, STRESS PERIOD   3
 UBDSV4 SAVING "          DRAINS" ON UNIT  40 AT TIME STEP  9, STRESS PERIOD   3
 UBDSV4 SAVING " HEAD DEP BOUNDS" ON UNIT  40 AT TIME STEP  9, STRESS PERIOD   3

 SAVING SATURATED THICKNESS AND FLOW TERMS ON UNIT  333 FOR MT3DMS
 BY THE LINK-MT3DMS PACKAGE V7 AT TIME STEP    9, STRESS PERIOD    3


 HEAD WILL BE SAVED ON UNIT    2 AT END OF TIME STEP    9, STRESS PERIOD    3

 DRAWDOWN WILL BE SAVED ON UNIT   13 AT END OF TIME STEP    9, STRESS PERIOD    3
1
  VOLUMETRIC BUDGET FOR ENTIRE MODEL AT END OF TIME STEP    9, STRESS PERIOD   3
  ------------------------------------------------------------------------------

     CUMULATIVE VOLUMES      L**3       RATES FOR THIS TIME STEP      L**3/T
     ------------------                 ------------------------

           IN:                                      IN:
           ---                                      ---
             STORAGE =          14.9099               STORAGE =       4.3948E-10
       CONSTANT HEAD =           0.0000         CONSTANT HEAD =           0.0000
              DRAINS =           0.0000                DRAINS =           0.0000
     HEAD DEP BOUNDS =         671.5525       HEAD DEP BOUNDS =          29.8743

            TOTAL IN =         686.4624              TOTAL IN =          29.8743

          OUT:                                     OUT:
          ----                                     ----
             STORAGE =          58.6190               STORAGE =       7.8678E-04
       CONSTANT HEAD =           0.0000         CONSTANT HEAD =           0.0000
              DRAINS =         627.8442                DRAINS =          29.8735
     HEAD DEP BOUNDS =           0.0000       HEAD DEP BOUNDS =           0.0000

           TOTAL OUT =         686.4632             TOTAL OUT =          29.8743

            IN - OUT =      -7.8873E-04              IN - OUT =       1.1419E-05

 PERCENT DISCREPANCY =          -0.00     PERCENT DISCREPANCY =           0.00






         TIME SUMMARY AT END OF TIME STEP    9 IN STRESS PERIOD    3
                    SECONDS     MINUTES      HOURS       DAYS        YEARS
                    -----------------------------------------------------------
   TIME STEP LENGTH  86400.      1440.0      24.000      1.0000     2.73785E-03
 STRESS PERIOD TIME 7.77600E+05  12960.      216.00      9.0000     2.46407E-02
         TOTAL TIME 2.50560E+06  41760.      696.00      29.000     7.93977E-02
1
 
 SOLVING FOR HEAD 

 OUTPUT CONTROL FOR STRESS PERIOD    3   TIME STEP   10
    PRINT BUDGET
    SAVE HEAD FOR ALL LAYERS
    SAVE DRAWDOWN FOR ALL LAYERS
    SAVE BUDGET
 UBDSV1 SAVING "         STORAGE" ON UNIT  40 AT TIME STEP 10, STRESS PERIOD   3
 UBDSV2 SAVING "   CONSTANT HEAD" ON UNIT  40 AT TIME STEP 10, STRESS PERIOD   3
 UBDSV1 SAVING "FLOW RIGHT FACE " ON UNIT  40 AT TIME STEP 10, STRESS PERIOD   3
 UBDSV1 SAVING "FLOW LOWER FACE " ON UNIT  40 AT TIME STEP 10, STRESS PERIOD   3
 UBDSV4 SAVING "          DRAINS" ON UNIT  40 AT TIME STEP 10, STRESS PERIOD   3
 UBDSV4 SAVING " HEAD DEP BOUNDS" ON UNIT  40 AT TIME STEP 10, STRESS PERIOD   3

 SAVING SATURATED THICKNESS AND FLOW TERMS ON UNIT  333 FOR MT3DMS
 BY THE LINK-MT3DMS PACKAGE V7 AT TIME STEP   10, STRESS PERIOD    3


 HEAD WILL BE SAVED ON UNIT    2 AT END OF TIME STEP   10, STRESS PERIOD    3

 DRAWDOWN WILL BE SAVED ON UNIT   13 AT END OF TIME STEP   10, STRESS PERIOD    3
1
  VOLUMETRIC BUDGET FOR ENTIRE MODEL AT END OF TIME STEP   10, STRESS PERIOD   3
  ------------------------------------------------------------------------------

     CUMULATIVE VOLUMES      L**3       RATES FOR THIS TIME STEP      L**3/T
     ------------------                 ------------------------

           IN:                                      IN:
           ---                                      ---
             STORAGE =          14.9099               STORAGE =       3.7627E-09
       CONSTANT HEAD =           0.0000         CONSTANT HEAD =           0.0000
              DRAINS =           0.0000                DRAINS =           0.0000
     HEAD DEP BOUNDS =         701.4268       HEAD DEP BOUNDS =          29.8743

            TOTAL IN =         716.3367              TOTAL IN =          29.8743

          OUT:                                     OUT:
          ----                                     ----
             STORAGE =          58.6191               STORAGE =       1.0166E-04
       CONSTANT HEAD =           0.0000         CONSTANT HEAD =           0.0000
              DRAINS =         657.7178                DRAINS =          29.8736
     HEAD DEP BOUNDS =           0.0000       HEAD DEP BOUNDS =           0.0000

           TOTAL OUT =         716.3369             TOTAL OUT =          29.8737

            IN - OUT =      -1.8653E-04              IN - OUT =       6.0220E-04

 PERCENT DISCREPANCY =          -0.00     PERCENT DISCREPANCY =           0.00






         TIME SUMMARY AT END OF TIME STEP   10 IN STRESS PERIOD    3
                    SECONDS     MINUTES      HOURS       DAYS        YEARS
                    -----------------------------------------------------------
   TIME STEP LENGTH  86400.      1440.0      24.000      1.0000     2.73785E-03
 STRESS PERIOD TIME 8.64000E+05  14400.      240.00      10.000     2.73785E-02
         TOTAL TIME 2.59200E+06  43200.      720.00      30.000     8.21355E-02
1

 Run end date and time (yyyy/mm/dd hh:mm:ss): 2023/05/28 23:20:44
 Elapsed run time:  0.297 Seconds

