                                  MODFLOW-NWT-SWR1 
      U.S. GEOLOGICAL SURVEY MODULAR FINITE-DIFFERENCE GROUNDWATER-FLOW MODEL
                            VERSION 1.2.0 03/01/2020
                    BASED ON MODFLOW-2005 VERSION 1.12.00 02/03/2017

 LIST FILE: case2.out
                         UNIT    1

 OPENING case2.hed
 FILE TYPE:DATA(BINARY)   UNIT    2   STATUS:UNKNOWN
 FORMAT:BINARY                 ACCESS:SEQUENTIAL          

 OPENING case2.drw
 FILE TYPE:DATA(BINARY)   UNIT   12   STATUS:UNKNOWN
 FORMAT:BINARY                 ACCESS:SEQUENTIAL          

 OPENING case2.ccf
 FILE TYPE:DATA(BINARY)   UNIT   40   STATUS:UNKNOWN
 FORMAT:BINARY                 ACCESS:SEQUENTIAL          

 OPENING case2.lmt6
 FILE TYPE:LMT6   UNIT    8   STATUS:OLD    
 FORMAT:FORMATTED              ACCESS:SEQUENTIAL          

 OPENING case2.dis
 FILE TYPE:DIS   UNIT    4   STATUS:OLD    
 FORMAT:FORMATTED              ACCESS:SEQUENTIAL          

 OPENING case2.ba6
 FILE TYPE:BAS6   UNIT    7   STATUS:OLD    
 FORMAT:FORMATTED              ACCESS:SEQUENTIAL          

 OPENING case2.upw
 FILE TYPE:UPW   UNIT    3   STATUS:OLD    
 FORMAT:FORMATTED              ACCESS:SEQUENTIAL          

 OPENING case2.oc
 FILE TYPE:OC   UNIT    9   STATUS:OLD    
 FORMAT:FORMATTED              ACCESS:SEQUENTIAL          

 OPENING case2.drn
 FILE TYPE:DRN   UNIT   10   STATUS:OLD    
 FORMAT:FORMATTED              ACCESS:SEQUENTIAL          

 OPENING case2.ghb
 FILE TYPE:GHB   UNIT   11   STATUS:OLD    
 FORMAT:FORMATTED              ACCESS:SEQUENTIAL          

 OPENING case2.nwt
 FILE TYPE:NWT   UNIT   14   STATUS:OLD    
 FORMAT:FORMATTED              ACCESS:SEQUENTIAL          

 BAS -- BASIC PACKAGE, VERSION 1.2.0, 3/01/2020 INPUT READ FROM UNIT    7
 
 MODFLOW was compiled using mixed precision
 Precision of REAL variables:           6
 Precision of DOUBLE PRECISION variables:          15

 DISCRETIZATION INPUT DATA READ FROM UNIT    4
 # MF2K DISCRETIZATION FILE
 #
 #
 # NLAY NROW NCOL NPER TIMEUNITS LENUNITS
   40 LAYERS         1 ROWS       100 COLUMNS
    3 STRESS PERIOD(S) IN SIMULATION
 MODEL TIME UNIT IS DAYS
 MODEL LENGTH UNIT IS METERS
  Confining bed flag for each layer:
   0   0   0   0   0   0   0   0   0   0   0   0   0   0   0   0   0   0   0   0
   0   0   0   0   0   0   0   0   0   0   0   0   0   0   0   0   0   0   0   0

                     DELR =   1.00000    

                     DELC =   1.00000    

 TOP ELEVATION OF LAYER 1 =   40.0000    

   MODEL LAYER BOTTOM EL. =   39.0000     FOR LAYER   1

   MODEL LAYER BOTTOM EL. =   38.0000     FOR LAYER   2

   MODEL LAYER BOTTOM EL. =   37.0000     FOR LAYER   3

   MODEL LAYER BOTTOM EL. =   36.0000     FOR LAYER   4

   MODEL LAYER BOTTOM EL. =   35.0000     FOR LAYER   5

   MODEL LAYER BOTTOM EL. =   34.0000     FOR LAYER   6

   MODEL LAYER BOTTOM EL. =   33.0000     FOR LAYER   7

   MODEL LAYER BOTTOM EL. =   32.0000     FOR LAYER   8

   MODEL LAYER BOTTOM EL. =   31.0000     FOR LAYER   9

   MODEL LAYER BOTTOM EL. =   30.0000     FOR LAYER  10

   MODEL LAYER BOTTOM EL. =   29.0000     FOR LAYER  11

   MODEL LAYER BOTTOM EL. =   28.0000     FOR LAYER  12

   MODEL LAYER BOTTOM EL. =   27.0000     FOR LAYER  13

   MODEL LAYER BOTTOM EL. =   26.0000     FOR LAYER  14

   MODEL LAYER BOTTOM EL. =   25.0000     FOR LAYER  15

   MODEL LAYER BOTTOM EL. =   24.0000     FOR LAYER  16

   MODEL LAYER BOTTOM EL. =   23.0000     FOR LAYER  17

   MODEL LAYER BOTTOM EL. =   22.0000     FOR LAYER  18

   MODEL LAYER BOTTOM EL. =   21.0000     FOR LAYER  19

   MODEL LAYER BOTTOM EL. =   20.0000     FOR LAYER  20

   MODEL LAYER BOTTOM EL. =   19.0000     FOR LAYER  21

   MODEL LAYER BOTTOM EL. =   18.0000     FOR LAYER  22

   MODEL LAYER BOTTOM EL. =   17.0000     FOR LAYER  23

   MODEL LAYER BOTTOM EL. =   16.0000     FOR LAYER  24

   MODEL LAYER BOTTOM EL. =   15.0000     FOR LAYER  25

   MODEL LAYER BOTTOM EL. =   14.0000     FOR LAYER  26

   MODEL LAYER BOTTOM EL. =   13.0000     FOR LAYER  27

   MODEL LAYER BOTTOM EL. =   12.0000     FOR LAYER  28

   MODEL LAYER BOTTOM EL. =   11.0000     FOR LAYER  29

   MODEL LAYER BOTTOM EL. =   10.0000     FOR LAYER  30

   MODEL LAYER BOTTOM EL. =   9.00000     FOR LAYER  31

   MODEL LAYER BOTTOM EL. =   8.00000     FOR LAYER  32

   MODEL LAYER BOTTOM EL. =   7.00000     FOR LAYER  33

   MODEL LAYER BOTTOM EL. =   6.00000     FOR LAYER  34

   MODEL LAYER BOTTOM EL. =   5.00000     FOR LAYER  35

   MODEL LAYER BOTTOM EL. =   4.00000     FOR LAYER  36

   MODEL LAYER BOTTOM EL. =   3.00000     FOR LAYER  37

   MODEL LAYER BOTTOM EL. =   2.00000     FOR LAYER  38

   MODEL LAYER BOTTOM EL. =   1.00000     FOR LAYER  39

   MODEL LAYER BOTTOM EL. =   0.00000     FOR LAYER  40


 STRESS PERIOD     LENGTH       TIME STEPS     MULTIPLIER FOR DELT    SS FLAG
 ----------------------------------------------------------------------------
        1         10.00000         10                    1.000         TR
        2         10.00000         10                    1.000         TR
        3         10.00000         10                    1.000         TR

 TRANSIENT SIMULATION



 
 THE FREE FORMAT OPTION HAS BEEN SELECTED



                     BOUNDARY ARRAY FOR LAYER   1
 READING ON UNIT    7 WITH FORMAT: (FREE)              



                     BOUNDARY ARRAY FOR LAYER   2
 READING ON UNIT    7 WITH FORMAT: (FREE)              



                     BOUNDARY ARRAY FOR LAYER   3
 READING ON UNIT    7 WITH FORMAT: (FREE)              



                     BOUNDARY ARRAY FOR LAYER   4
 READING ON UNIT    7 WITH FORMAT: (FREE)              



                     BOUNDARY ARRAY FOR LAYER   5
 READING ON UNIT    7 WITH FORMAT: (FREE)              



                     BOUNDARY ARRAY FOR LAYER   6
 READING ON UNIT    7 WITH FORMAT: (FREE)              



                     BOUNDARY ARRAY FOR LAYER   7
 READING ON UNIT    7 WITH FORMAT: (FREE)              



                     BOUNDARY ARRAY FOR LAYER   8
 READING ON UNIT    7 WITH FORMAT: (FREE)              



                     BOUNDARY ARRAY FOR LAYER   9
 READING ON UNIT    7 WITH FORMAT: (FREE)              



                     BOUNDARY ARRAY FOR LAYER  10
 READING ON UNIT    7 WITH FORMAT: (FREE)              



                     BOUNDARY ARRAY FOR LAYER  11
 READING ON UNIT    7 WITH FORMAT: (FREE)              



                     BOUNDARY ARRAY FOR LAYER  12
 READING ON UNIT    7 WITH FORMAT: (FREE)              



                     BOUNDARY ARRAY FOR LAYER  13
 READING ON UNIT    7 WITH FORMAT: (FREE)              



                     BOUNDARY ARRAY FOR LAYER  14
 READING ON UNIT    7 WITH FORMAT: (FREE)              



                     BOUNDARY ARRAY FOR LAYER  15
 READING ON UNIT    7 WITH FORMAT: (FREE)              



                     BOUNDARY ARRAY FOR LAYER  16
 READING ON UNIT    7 WITH FORMAT: (FREE)              



                     BOUNDARY ARRAY FOR LAYER  17
 READING ON UNIT    7 WITH FORMAT: (FREE)              



                     BOUNDARY ARRAY FOR LAYER  18
 READING ON UNIT    7 WITH FORMAT: (FREE)              



                     BOUNDARY ARRAY FOR LAYER  19
 READING ON UNIT    7 WITH FORMAT: (FREE)              



                     BOUNDARY ARRAY FOR LAYER  20
 READING ON UNIT    7 WITH FORMAT: (FREE)              



                     BOUNDARY ARRAY FOR LAYER  21
 READING ON UNIT    7 WITH FORMAT: (FREE)              



                     BOUNDARY ARRAY FOR LAYER  22
 READING ON UNIT    7 WITH FORMAT: (FREE)              



                     BOUNDARY ARRAY FOR LAYER  23
 READING ON UNIT    7 WITH FORMAT: (FREE)              



                     BOUNDARY ARRAY FOR LAYER  24
 READING ON UNIT    7 WITH FORMAT: (FREE)              



                     BOUNDARY ARRAY FOR LAYER  25
 READING ON UNIT    7 WITH FORMAT: (FREE)              



                     BOUNDARY ARRAY FOR LAYER  26
 READING ON UNIT    7 WITH FORMAT: (FREE)              



                     BOUNDARY ARRAY FOR LAYER  27
 READING ON UNIT    7 WITH FORMAT: (FREE)              



                     BOUNDARY ARRAY FOR LAYER  28
 READING ON UNIT    7 WITH FORMAT: (FREE)              



                     BOUNDARY ARRAY FOR LAYER  29
 READING ON UNIT    7 WITH FORMAT: (FREE)              



                     BOUNDARY ARRAY FOR LAYER  30
 READING ON UNIT    7 WITH FORMAT: (FREE)              



                     BOUNDARY ARRAY FOR LAYER  31
 READING ON UNIT    7 WITH FORMAT: (FREE)              



                     BOUNDARY ARRAY FOR LAYER  32
 READING ON UNIT    7 WITH FORMAT: (FREE)              



                     BOUNDARY ARRAY FOR LAYER  33
 READING ON UNIT    7 WITH FORMAT: (FREE)              



                     BOUNDARY ARRAY FOR LAYER  34
 READING ON UNIT    7 WITH FORMAT: (FREE)              



                     BOUNDARY ARRAY FOR LAYER  35
 READING ON UNIT    7 WITH FORMAT: (FREE)              



                     BOUNDARY ARRAY FOR LAYER  36
 READING ON UNIT    7 WITH FORMAT: (FREE)              



                     BOUNDARY ARRAY FOR LAYER  37
 READING ON UNIT    7 WITH FORMAT: (FREE)              



                     BOUNDARY ARRAY FOR LAYER  38
 READING ON UNIT    7 WITH FORMAT: (FREE)              



                     BOUNDARY ARRAY FOR LAYER  39
 READING ON UNIT    7 WITH FORMAT: (FREE)              

           BOUNDARY ARRAY =              1 FOR LAYER  40

 AQUIFER HEAD WILL BE SET TO  -9999.0     AT ALL NO-FLOW NODES (IBOUND=0).

             INITIAL HEAD =   38.0000     FOR LAYER   1

             INITIAL HEAD =   38.0000     FOR LAYER   2

             INITIAL HEAD =   38.0000     FOR LAYER   3

             INITIAL HEAD =   38.0000     FOR LAYER   4

             INITIAL HEAD =   38.0000     FOR LAYER   5

             INITIAL HEAD =   38.0000     FOR LAYER   6

             INITIAL HEAD =   38.0000     FOR LAYER   7

             INITIAL HEAD =   38.0000     FOR LAYER   8

             INITIAL HEAD =   38.0000     FOR LAYER   9

             INITIAL HEAD =   38.0000     FOR LAYER  10

             INITIAL HEAD =   38.0000     FOR LAYER  11

             INITIAL HEAD =   38.0000     FOR LAYER  12

             INITIAL HEAD =   38.0000     FOR LAYER  13

             INITIAL HEAD =   38.0000     FOR LAYER  14

             INITIAL HEAD =   38.0000     FOR LAYER  15

             INITIAL HEAD =   38.0000     FOR LAYER  16

             INITIAL HEAD =   38.0000     FOR LAYER  17

             INITIAL HEAD =   38.0000     FOR LAYER  18

             INITIAL HEAD =   38.0000     FOR LAYER  19

             INITIAL HEAD =   38.0000     FOR LAYER  20

             INITIAL HEAD =   38.0000     FOR LAYER  21

             INITIAL HEAD =   38.0000     FOR LAYER  22

             INITIAL HEAD =   38.0000     FOR LAYER  23

             INITIAL HEAD =   38.0000     FOR LAYER  24

             INITIAL HEAD =   38.0000     FOR LAYER  25

             INITIAL HEAD =   38.0000     FOR LAYER  26

             INITIAL HEAD =   38.0000     FOR LAYER  27

             INITIAL HEAD =   38.0000     FOR LAYER  28

             INITIAL HEAD =   38.0000     FOR LAYER  29

             INITIAL HEAD =   38.0000     FOR LAYER  30

             INITIAL HEAD =   38.0000     FOR LAYER  31

             INITIAL HEAD =   38.0000     FOR LAYER  32

             INITIAL HEAD =   38.0000     FOR LAYER  33

             INITIAL HEAD =   38.0000     FOR LAYER  34

             INITIAL HEAD =   38.0000     FOR LAYER  35

             INITIAL HEAD =   38.0000     FOR LAYER  36

             INITIAL HEAD =   38.0000     FOR LAYER  37

             INITIAL HEAD =   38.0000     FOR LAYER  38

             INITIAL HEAD =   38.0000     FOR LAYER  39

             INITIAL HEAD =   38.0000     FOR LAYER  40

 OUTPUT CONTROL IS SPECIFIED ONLY AT TIME STEPS FOR WHICH OUTPUT IS DESIRED
 COMPACT CELL-BY-CELL BUDGET FILES WILL BE WRITTEN
 AUXILIARY DATA WILL BE SAVED IN CELL-BY-CELL BUDGET FILES
 HEAD PRINT FORMAT CODE IS   0    DRAWDOWN PRINT FORMAT CODE IS   0
 HEADS WILL BE SAVED ON UNIT    2    DRAWDOWNS WILL BE SAVED ON UNIT   12
 #

 NWT1 -- Newton Solver, VERSION 1.2.0, 3/01/2020
         INPUT READ FROM UNIT 14

 SIMPLE OPTION:
 DEFAULT SOLVER INPUT VALUES REFLECT NEARLY LINEAR MODEL
 ***XMD linear solver will be used***
 
   CONVERGENCE CRITERION OF   0.100000E-03 FOR HEAD SOLUTION
   AND A TOLERANCE OF   0.100000E-03 FOR FLOW SOLUTION AND 
   A MAXIMUM OF 50000 OUTER ITERATIONS. 


   D-B-D REDUCTION FACTOR OF    0.970000E+00 AND 
   A D-B-D INCREASE FACTOR OF    0.100000E-03 AND 
   A D-B-D RELAXATION OF    0.000000E+00 AND 
   A MOMENTUM FACTOR OF    0.000000E+00 .


 ***BACKTRACKING IS INACTIVE***
 XMD -- LINEAR SOLUTION BY XMD PACKAGE VERSION 1.30
     BY MOTOMU IBARAKI, OHIO STATE UNIVERSITY, COLOMBUS, OH
                 INPUT READ FROM UNIT 14
 ACCELERATION METHOD                    (IACL) =         1
 NODE ORDERING FLAG                   (NORDER) =         0
 LEVEL OF FILL                         (LEVEL) =         1
 MAXIMUM NUMBER OF ORTHOGONALIZATIONS  (NORTH) =         5
 INDEX FOR USING REDUCED SYSTEM      (IREDSYS) =         1
 RESID. REDUCTION CONVERGE CRITERION  (RRCTOL) =  0.000000E+00
 INDEX FOR USING DROP TOLERANCE     (IDROPTOL) =         1
 DROP TOLERANCE VALUE                  (EPSRN) =  0.500000E-02
 CONVERGENCE CRITERIA OF           (HCLOSEXMD) =  0.100000E-02
 MAX. NUMBER OF LINEAR ITERATIONS  (MXITERXMD) =        50


 UPW1 -- UPSTREAM WEIGHTING FLOW PACKAGE, VERSION 1.2.0, 3/01/2020
         INPUT READ FROM UNIT  3

 CELL-BY-CELL FLOWS WILL BE SAVED ON UNIT   40
 No named parameters

   LAYER FLAGS:
 LAYER       LAYTYP          LAYAVG    CHANI           LAYVKA           LAYWET
 ---------------------------------------------------------------------------
    1             1             0    -1.000E+00             1             0
    2             1             0    -1.000E+00             1             0
    3             1             0    -1.000E+00             1             0
    4             1             0    -1.000E+00             1             0
    5             1             0    -1.000E+00             1             0
    6             1             0    -1.000E+00             1             0
    7             1             0    -1.000E+00             1             0
    8             1             0    -1.000E+00             1             0
    9             1             0    -1.000E+00             1             0
   10             1             0    -1.000E+00             1             0
   11             1             0    -1.000E+00             1             0
   12             1             0    -1.000E+00             1             0
   13             1             0    -1.000E+00             1             0
   14             1             0    -1.000E+00             1             0
   15             1             0    -1.000E+00             1             0
   16             1             0    -1.000E+00             1             0
   17             1             0    -1.000E+00             1             0
   18             1             0    -1.000E+00             1             0
   19             1             0    -1.000E+00             1             0
   20             1             0    -1.000E+00             1             0
   21             1             0    -1.000E+00             1             0
   22             1             0    -1.000E+00             1             0
   23             1             0    -1.000E+00             1             0
   24             1             0    -1.000E+00             1             0
   25             1             0    -1.000E+00             1             0
   26             1             0    -1.000E+00             1             0
   27             1             0    -1.000E+00             1             0
   28             1             0    -1.000E+00             1             0
   29             1             0    -1.000E+00             1             0
   30             1             0    -1.000E+00             1             0
   31             1             0    -1.000E+00             1             0
   32             1             0    -1.000E+00             1             0
   33             1             0    -1.000E+00             1             0
   34             1             0    -1.000E+00             1             0
   35             1             0    -1.000E+00             1             0
   36             1             0    -1.000E+00             1             0
   37             1             0    -1.000E+00             1             0
   38             1             0    -1.000E+00             1             0
   39             1             0    -1.000E+00             1             0
   40             1             0    -1.000E+00             1             0

   INTERPRETATION OF LAYER FLAGS:
                        INTERBLOCK     HORIZONTAL    DATA IN
         LAYER TYPE   TRANSMISSIVITY   ANISOTROPY   ARRAY VKA   WETTABILITY
 LAYER   (LAYTYP)        (LAYAVG)      (CHANI)     (LAYVKA)       (LAYWET)
 ---------------------------------------------------------------------------
    1   CONVERTIBLE      HARMONIC      VARIABLE    ANISOTROPY  NON-WETTABLE
    2   CONVERTIBLE      HARMONIC      VARIABLE    ANISOTROPY  NON-WETTABLE
    3   CONVERTIBLE      HARMONIC      VARIABLE    ANISOTROPY  NON-WETTABLE
    4   CONVERTIBLE      HARMONIC      VARIABLE    ANISOTROPY  NON-WETTABLE
    5   CONVERTIBLE      HARMONIC      VARIABLE    ANISOTROPY  NON-WETTABLE
    6   CONVERTIBLE      HARMONIC      VARIABLE    ANISOTROPY  NON-WETTABLE
    7   CONVERTIBLE      HARMONIC      VARIABLE    ANISOTROPY  NON-WETTABLE
    8   CONVERTIBLE      HARMONIC      VARIABLE    ANISOTROPY  NON-WETTABLE
    9   CONVERTIBLE      HARMONIC      VARIABLE    ANISOTROPY  NON-WETTABLE
   10   CONVERTIBLE      HARMONIC      VARIABLE    ANISOTROPY  NON-WETTABLE
   11   CONVERTIBLE      HARMONIC      VARIABLE    ANISOTROPY  NON-WETTABLE
   12   CONVERTIBLE      HARMONIC      VARIABLE    ANISOTROPY  NON-WETTABLE
   13   CONVERTIBLE      HARMONIC      VARIABLE    ANISOTROPY  NON-WETTABLE
   14   CONVERTIBLE      HARMONIC      VARIABLE    ANISOTROPY  NON-WETTABLE
   15   CONVERTIBLE      HARMONIC      VARIABLE    ANISOTROPY  NON-WETTABLE
   16   CONVERTIBLE      HARMONIC      VARIABLE    ANISOTROPY  NON-WETTABLE
   17   CONVERTIBLE      HARMONIC      VARIABLE    ANISOTROPY  NON-WETTABLE
   18   CONVERTIBLE      HARMONIC      VARIABLE    ANISOTROPY  NON-WETTABLE
   19   CONVERTIBLE      HARMONIC      VARIABLE    ANISOTROPY  NON-WETTABLE
   20   CONVERTIBLE      HARMONIC      VARIABLE    ANISOTROPY  NON-WETTABLE
   21   CONVERTIBLE      HARMONIC      VARIABLE    ANISOTROPY  NON-WETTABLE
   22   CONVERTIBLE      HARMONIC      VARIABLE    ANISOTROPY  NON-WETTABLE
   23   CONVERTIBLE      HARMONIC      VARIABLE    ANISOTROPY  NON-WETTABLE
   24   CONVERTIBLE      HARMONIC      VARIABLE    ANISOTROPY  NON-WETTABLE
   25   CONVERTIBLE      HARMONIC      VARIABLE    ANISOTROPY  NON-WETTABLE
   26   CONVERTIBLE      HARMONIC      VARIABLE    ANISOTROPY  NON-WETTABLE
   27   CONVERTIBLE      HARMONIC      VARIABLE    ANISOTROPY  NON-WETTABLE
   28   CONVERTIBLE      HARMONIC      VARIABLE    ANISOTROPY  NON-WETTABLE
   29   CONVERTIBLE      HARMONIC      VARIABLE    ANISOTROPY  NON-WETTABLE
   30   CONVERTIBLE      HARMONIC      VARIABLE    ANISOTROPY  NON-WETTABLE
   31   CONVERTIBLE      HARMONIC      VARIABLE    ANISOTROPY  NON-WETTABLE
   32   CONVERTIBLE      HARMONIC      VARIABLE    ANISOTROPY  NON-WETTABLE
   33   CONVERTIBLE      HARMONIC      VARIABLE    ANISOTROPY  NON-WETTABLE
   34   CONVERTIBLE      HARMONIC      VARIABLE    ANISOTROPY  NON-WETTABLE
   35   CONVERTIBLE      HARMONIC      VARIABLE    ANISOTROPY  NON-WETTABLE
   36   CONVERTIBLE      HARMONIC      VARIABLE    ANISOTROPY  NON-WETTABLE
   37   CONVERTIBLE      HARMONIC      VARIABLE    ANISOTROPY  NON-WETTABLE
   38   CONVERTIBLE      HARMONIC      VARIABLE    ANISOTROPY  NON-WETTABLE
   39   CONVERTIBLE      HARMONIC      VARIABLE    ANISOTROPY  NON-WETTABLE
   40   CONVERTIBLE      HARMONIC      VARIABLE    ANISOTROPY  NON-WETTABLE



              HYD. COND. ALONG ROWS FOR LAYER   1
 READING ON UNIT    3 WITH FORMAT: (FREE)              

   HORIZ. ANI. (COL./ROW) =   1.00000     FOR LAYER   1



            HORIZ. TO VERTICAL ANI. FOR LAYER   1
 READING ON UNIT    3 WITH FORMAT: (FREE)              



                   SPECIFIC STORAGE FOR LAYER   1
 READING ON UNIT    3 WITH FORMAT: (FREE)              



                     SPECIFIC YIELD FOR LAYER   1
 READING ON UNIT    3 WITH FORMAT: (FREE)              



              HYD. COND. ALONG ROWS FOR LAYER   2
 READING ON UNIT    3 WITH FORMAT: (FREE)              

   HORIZ. ANI. (COL./ROW) =   1.00000     FOR LAYER   2



            HORIZ. TO VERTICAL ANI. FOR LAYER   2
 READING ON UNIT    3 WITH FORMAT: (FREE)              



                   SPECIFIC STORAGE FOR LAYER   2
 READING ON UNIT    3 WITH FORMAT: (FREE)              



                     SPECIFIC YIELD FOR LAYER   2
 READING ON UNIT    3 WITH FORMAT: (FREE)              



              HYD. COND. ALONG ROWS FOR LAYER   3
 READING ON UNIT    3 WITH FORMAT: (FREE)              

   HORIZ. ANI. (COL./ROW) =   1.00000     FOR LAYER   3



            HORIZ. TO VERTICAL ANI. FOR LAYER   3
 READING ON UNIT    3 WITH FORMAT: (FREE)              



                   SPECIFIC STORAGE FOR LAYER   3
 READING ON UNIT    3 WITH FORMAT: (FREE)              



                     SPECIFIC YIELD FOR LAYER   3
 READING ON UNIT    3 WITH FORMAT: (FREE)              



              HYD. COND. ALONG ROWS FOR LAYER   4
 READING ON UNIT    3 WITH FORMAT: (FREE)              

   HORIZ. ANI. (COL./ROW) =   1.00000     FOR LAYER   4



            HORIZ. TO VERTICAL ANI. FOR LAYER   4
 READING ON UNIT    3 WITH FORMAT: (FREE)              



                   SPECIFIC STORAGE FOR LAYER   4
 READING ON UNIT    3 WITH FORMAT: (FREE)              



                     SPECIFIC YIELD FOR LAYER   4
 READING ON UNIT    3 WITH FORMAT: (FREE)              



              HYD. COND. ALONG ROWS FOR LAYER   5
 READING ON UNIT    3 WITH FORMAT: (FREE)              

   HORIZ. ANI. (COL./ROW) =   1.00000     FOR LAYER   5



            HORIZ. TO VERTICAL ANI. FOR LAYER   5
 READING ON UNIT    3 WITH FORMAT: (FREE)              



                   SPECIFIC STORAGE FOR LAYER   5
 READING ON UNIT    3 WITH FORMAT: (FREE)              



                     SPECIFIC YIELD FOR LAYER   5
 READING ON UNIT    3 WITH FORMAT: (FREE)              



              HYD. COND. ALONG ROWS FOR LAYER   6
 READING ON UNIT    3 WITH FORMAT: (FREE)              

   HORIZ. ANI. (COL./ROW) =   1.00000     FOR LAYER   6



            HORIZ. TO VERTICAL ANI. FOR LAYER   6
 READING ON UNIT    3 WITH FORMAT: (FREE)              



                   SPECIFIC STORAGE FOR LAYER   6
 READING ON UNIT    3 WITH FORMAT: (FREE)              



                     SPECIFIC YIELD FOR LAYER   6
 READING ON UNIT    3 WITH FORMAT: (FREE)              



              HYD. COND. ALONG ROWS FOR LAYER   7
 READING ON UNIT    3 WITH FORMAT: (FREE)              

   HORIZ. ANI. (COL./ROW) =   1.00000     FOR LAYER   7



            HORIZ. TO VERTICAL ANI. FOR LAYER   7
 READING ON UNIT    3 WITH FORMAT: (FREE)              



                   SPECIFIC STORAGE FOR LAYER   7
 READING ON UNIT    3 WITH FORMAT: (FREE)              



                     SPECIFIC YIELD FOR LAYER   7
 READING ON UNIT    3 WITH FORMAT: (FREE)              



              HYD. COND. ALONG ROWS FOR LAYER   8
 READING ON UNIT    3 WITH FORMAT: (FREE)              

   HORIZ. ANI. (COL./ROW) =   1.00000     FOR LAYER   8



            HORIZ. TO VERTICAL ANI. FOR LAYER   8
 READING ON UNIT    3 WITH FORMAT: (FREE)              



                   SPECIFIC STORAGE FOR LAYER   8
 READING ON UNIT    3 WITH FORMAT: (FREE)              



                     SPECIFIC YIELD FOR LAYER   8
 READING ON UNIT    3 WITH FORMAT: (FREE)              



              HYD. COND. ALONG ROWS FOR LAYER   9
 READING ON UNIT    3 WITH FORMAT: (FREE)              

   HORIZ. ANI. (COL./ROW) =   1.00000     FOR LAYER   9



            HORIZ. TO VERTICAL ANI. FOR LAYER   9
 READING ON UNIT    3 WITH FORMAT: (FREE)              



                   SPECIFIC STORAGE FOR LAYER   9
 READING ON UNIT    3 WITH FORMAT: (FREE)              



                     SPECIFIC YIELD FOR LAYER   9
 READING ON UNIT    3 WITH FORMAT: (FREE)              



              HYD. COND. ALONG ROWS FOR LAYER  10
 READING ON UNIT    3 WITH FORMAT: (FREE)              

   HORIZ. ANI. (COL./ROW) =   1.00000     FOR LAYER  10



            HORIZ. TO VERTICAL ANI. FOR LAYER  10
 READING ON UNIT    3 WITH FORMAT: (FREE)              



                   SPECIFIC STORAGE FOR LAYER  10
 READING ON UNIT    3 WITH FORMAT: (FREE)              



                     SPECIFIC YIELD FOR LAYER  10
 READING ON UNIT    3 WITH FORMAT: (FREE)              



              HYD. COND. ALONG ROWS FOR LAYER  11
 READING ON UNIT    3 WITH FORMAT: (FREE)              

   HORIZ. ANI. (COL./ROW) =   1.00000     FOR LAYER  11



            HORIZ. TO VERTICAL ANI. FOR LAYER  11
 READING ON UNIT    3 WITH FORMAT: (FREE)              



                   SPECIFIC STORAGE FOR LAYER  11
 READING ON UNIT    3 WITH FORMAT: (FREE)              



                     SPECIFIC YIELD FOR LAYER  11
 READING ON UNIT    3 WITH FORMAT: (FREE)              



              HYD. COND. ALONG ROWS FOR LAYER  12
 READING ON UNIT    3 WITH FORMAT: (FREE)              

   HORIZ. ANI. (COL./ROW) =   1.00000     FOR LAYER  12



            HORIZ. TO VERTICAL ANI. FOR LAYER  12
 READING ON UNIT    3 WITH FORMAT: (FREE)              



                   SPECIFIC STORAGE FOR LAYER  12
 READING ON UNIT    3 WITH FORMAT: (FREE)              



                     SPECIFIC YIELD FOR LAYER  12
 READING ON UNIT    3 WITH FORMAT: (FREE)              



              HYD. COND. ALONG ROWS FOR LAYER  13
 READING ON UNIT    3 WITH FORMAT: (FREE)              

   HORIZ. ANI. (COL./ROW) =   1.00000     FOR LAYER  13



            HORIZ. TO VERTICAL ANI. FOR LAYER  13
 READING ON UNIT    3 WITH FORMAT: (FREE)              



                   SPECIFIC STORAGE FOR LAYER  13
 READING ON UNIT    3 WITH FORMAT: (FREE)              



                     SPECIFIC YIELD FOR LAYER  13
 READING ON UNIT    3 WITH FORMAT: (FREE)              



              HYD. COND. ALONG ROWS FOR LAYER  14
 READING ON UNIT    3 WITH FORMAT: (FREE)              

   HORIZ. ANI. (COL./ROW) =   1.00000     FOR LAYER  14



            HORIZ. TO VERTICAL ANI. FOR LAYER  14
 READING ON UNIT    3 WITH FORMAT: (FREE)              



                   SPECIFIC STORAGE FOR LAYER  14
 READING ON UNIT    3 WITH FORMAT: (FREE)              



                     SPECIFIC YIELD FOR LAYER  14
 READING ON UNIT    3 WITH FORMAT: (FREE)              



              HYD. COND. ALONG ROWS FOR LAYER  15
 READING ON UNIT    3 WITH FORMAT: (FREE)              

   HORIZ. ANI. (COL./ROW) =   1.00000     FOR LAYER  15



            HORIZ. TO VERTICAL ANI. FOR LAYER  15
 READING ON UNIT    3 WITH FORMAT: (FREE)              



                   SPECIFIC STORAGE FOR LAYER  15
 READING ON UNIT    3 WITH FORMAT: (FREE)              



                     SPECIFIC YIELD FOR LAYER  15
 READING ON UNIT    3 WITH FORMAT: (FREE)              



              HYD. COND. ALONG ROWS FOR LAYER  16
 READING ON UNIT    3 WITH FORMAT: (FREE)              

   HORIZ. ANI. (COL./ROW) =   1.00000     FOR LAYER  16



            HORIZ. TO VERTICAL ANI. FOR LAYER  16
 READING ON UNIT    3 WITH FORMAT: (FREE)              



                   SPECIFIC STORAGE FOR LAYER  16
 READING ON UNIT    3 WITH FORMAT: (FREE)              



                     SPECIFIC YIELD FOR LAYER  16
 READING ON UNIT    3 WITH FORMAT: (FREE)              



              HYD. COND. ALONG ROWS FOR LAYER  17
 READING ON UNIT    3 WITH FORMAT: (FREE)              

   HORIZ. ANI. (COL./ROW) =   1.00000     FOR LAYER  17



            HORIZ. TO VERTICAL ANI. FOR LAYER  17
 READING ON UNIT    3 WITH FORMAT: (FREE)              



                   SPECIFIC STORAGE FOR LAYER  17
 READING ON UNIT    3 WITH FORMAT: (FREE)              



                     SPECIFIC YIELD FOR LAYER  17
 READING ON UNIT    3 WITH FORMAT: (FREE)              



              HYD. COND. ALONG ROWS FOR LAYER  18
 READING ON UNIT    3 WITH FORMAT: (FREE)              

   HORIZ. ANI. (COL./ROW) =   1.00000     FOR LAYER  18



            HORIZ. TO VERTICAL ANI. FOR LAYER  18
 READING ON UNIT    3 WITH FORMAT: (FREE)              



                   SPECIFIC STORAGE FOR LAYER  18
 READING ON UNIT    3 WITH FORMAT: (FREE)              



                     SPECIFIC YIELD FOR LAYER  18
 READING ON UNIT    3 WITH FORMAT: (FREE)              



              HYD. COND. ALONG ROWS FOR LAYER  19
 READING ON UNIT    3 WITH FORMAT: (FREE)              

   HORIZ. ANI. (COL./ROW) =   1.00000     FOR LAYER  19



            HORIZ. TO VERTICAL ANI. FOR LAYER  19
 READING ON UNIT    3 WITH FORMAT: (FREE)              



                   SPECIFIC STORAGE FOR LAYER  19
 READING ON UNIT    3 WITH FORMAT: (FREE)              



                     SPECIFIC YIELD FOR LAYER  19
 READING ON UNIT    3 WITH FORMAT: (FREE)              



              HYD. COND. ALONG ROWS FOR LAYER  20
 READING ON UNIT    3 WITH FORMAT: (FREE)              

   HORIZ. ANI. (COL./ROW) =   1.00000     FOR LAYER  20



            HORIZ. TO VERTICAL ANI. FOR LAYER  20
 READING ON UNIT    3 WITH FORMAT: (FREE)              



                   SPECIFIC STORAGE FOR LAYER  20
 READING ON UNIT    3 WITH FORMAT: (FREE)              



                     SPECIFIC YIELD FOR LAYER  20
 READING ON UNIT    3 WITH FORMAT: (FREE)              



              HYD. COND. ALONG ROWS FOR LAYER  21
 READING ON UNIT    3 WITH FORMAT: (FREE)              

   HORIZ. ANI. (COL./ROW) =   1.00000     FOR LAYER  21



            HORIZ. TO VERTICAL ANI. FOR LAYER  21
 READING ON UNIT    3 WITH FORMAT: (FREE)              



                   SPECIFIC STORAGE FOR LAYER  21
 READING ON UNIT    3 WITH FORMAT: (FREE)              



                     SPECIFIC YIELD FOR LAYER  21
 READING ON UNIT    3 WITH FORMAT: (FREE)              



              HYD. COND. ALONG ROWS FOR LAYER  22
 READING ON UNIT    3 WITH FORMAT: (FREE)              

   HORIZ. ANI. (COL./ROW) =   1.00000     FOR LAYER  22



            HORIZ. TO VERTICAL ANI. FOR LAYER  22
 READING ON UNIT    3 WITH FORMAT: (FREE)              



                   SPECIFIC STORAGE FOR LAYER  22
 READING ON UNIT    3 WITH FORMAT: (FREE)              



                     SPECIFIC YIELD FOR LAYER  22
 READING ON UNIT    3 WITH FORMAT: (FREE)              



              HYD. COND. ALONG ROWS FOR LAYER  23
 READING ON UNIT    3 WITH FORMAT: (FREE)              

   HORIZ. ANI. (COL./ROW) =   1.00000     FOR LAYER  23



            HORIZ. TO VERTICAL ANI. FOR LAYER  23
 READING ON UNIT    3 WITH FORMAT: (FREE)              



                   SPECIFIC STORAGE FOR LAYER  23
 READING ON UNIT    3 WITH FORMAT: (FREE)              



                     SPECIFIC YIELD FOR LAYER  23
 READING ON UNIT    3 WITH FORMAT: (FREE)              



              HYD. COND. ALONG ROWS FOR LAYER  24
 READING ON UNIT    3 WITH FORMAT: (FREE)              

   HORIZ. ANI. (COL./ROW) =   1.00000     FOR LAYER  24



            HORIZ. TO VERTICAL ANI. FOR LAYER  24
 READING ON UNIT    3 WITH FORMAT: (FREE)              



                   SPECIFIC STORAGE FOR LAYER  24
 READING ON UNIT    3 WITH FORMAT: (FREE)              



                     SPECIFIC YIELD FOR LAYER  24
 READING ON UNIT    3 WITH FORMAT: (FREE)              



              HYD. COND. ALONG ROWS FOR LAYER  25
 READING ON UNIT    3 WITH FORMAT: (FREE)              

   HORIZ. ANI. (COL./ROW) =   1.00000     FOR LAYER  25



            HORIZ. TO VERTICAL ANI. FOR LAYER  25
 READING ON UNIT    3 WITH FORMAT: (FREE)              



                   SPECIFIC STORAGE FOR LAYER  25
 READING ON UNIT    3 WITH FORMAT: (FREE)              



                     SPECIFIC YIELD FOR LAYER  25
 READING ON UNIT    3 WITH FORMAT: (FREE)              



              HYD. COND. ALONG ROWS FOR LAYER  26
 READING ON UNIT    3 WITH FORMAT: (FREE)              

   HORIZ. ANI. (COL./ROW) =   1.00000     FOR LAYER  26



            HORIZ. TO VERTICAL ANI. FOR LAYER  26
 READING ON UNIT    3 WITH FORMAT: (FREE)              



                   SPECIFIC STORAGE FOR LAYER  26
 READING ON UNIT    3 WITH FORMAT: (FREE)              



                     SPECIFIC YIELD FOR LAYER  26
 READING ON UNIT    3 WITH FORMAT: (FREE)              



              HYD. COND. ALONG ROWS FOR LAYER  27
 READING ON UNIT    3 WITH FORMAT: (FREE)              

   HORIZ. ANI. (COL./ROW) =   1.00000     FOR LAYER  27



            HORIZ. TO VERTICAL ANI. FOR LAYER  27
 READING ON UNIT    3 WITH FORMAT: (FREE)              



                   SPECIFIC STORAGE FOR LAYER  27
 READING ON UNIT    3 WITH FORMAT: (FREE)              



                     SPECIFIC YIELD FOR LAYER  27
 READING ON UNIT    3 WITH FORMAT: (FREE)              



              HYD. COND. ALONG ROWS FOR LAYER  28
 READING ON UNIT    3 WITH FORMAT: (FREE)              

   HORIZ. ANI. (COL./ROW) =   1.00000     FOR LAYER  28



            HORIZ. TO VERTICAL ANI. FOR LAYER  28
 READING ON UNIT    3 WITH FORMAT: (FREE)              



                   SPECIFIC STORAGE FOR LAYER  28
 READING ON UNIT    3 WITH FORMAT: (FREE)              



                     SPECIFIC YIELD FOR LAYER  28
 READING ON UNIT    3 WITH FORMAT: (FREE)              



              HYD. COND. ALONG ROWS FOR LAYER  29
 READING ON UNIT    3 WITH FORMAT: (FREE)              

   HORIZ. ANI. (COL./ROW) =   1.00000     FOR LAYER  29



            HORIZ. TO VERTICAL ANI. FOR LAYER  29
 READING ON UNIT    3 WITH FORMAT: (FREE)              



                   SPECIFIC STORAGE FOR LAYER  29
 READING ON UNIT    3 WITH FORMAT: (FREE)              



                     SPECIFIC YIELD FOR LAYER  29
 READING ON UNIT    3 WITH FORMAT: (FREE)              



              HYD. COND. ALONG ROWS FOR LAYER  30
 READING ON UNIT    3 WITH FORMAT: (FREE)              

   HORIZ. ANI. (COL./ROW) =   1.00000     FOR LAYER  30



            HORIZ. TO VERTICAL ANI. FOR LAYER  30
 READING ON UNIT    3 WITH FORMAT: (FREE)              



                   SPECIFIC STORAGE FOR LAYER  30
 READING ON UNIT    3 WITH FORMAT: (FREE)              



                     SPECIFIC YIELD FOR LAYER  30
 READING ON UNIT    3 WITH FORMAT: (FREE)              



              HYD. COND. ALONG ROWS FOR LAYER  31
 READING ON UNIT    3 WITH FORMAT: (FREE)              

   HORIZ. ANI. (COL./ROW) =   1.00000     FOR LAYER  31



            HORIZ. TO VERTICAL ANI. FOR LAYER  31
 READING ON UNIT    3 WITH FORMAT: (FREE)              



                   SPECIFIC STORAGE FOR LAYER  31
 READING ON UNIT    3 WITH FORMAT: (FREE)              



                     SPECIFIC YIELD FOR LAYER  31
 READING ON UNIT    3 WITH FORMAT: (FREE)              



              HYD. COND. ALONG ROWS FOR LAYER  32
 READING ON UNIT    3 WITH FORMAT: (FREE)              

   HORIZ. ANI. (COL./ROW) =   1.00000     FOR LAYER  32



            HORIZ. TO VERTICAL ANI. FOR LAYER  32
 READING ON UNIT    3 WITH FORMAT: (FREE)              



                   SPECIFIC STORAGE FOR LAYER  32
 READING ON UNIT    3 WITH FORMAT: (FREE)              



                     SPECIFIC YIELD FOR LAYER  32
 READING ON UNIT    3 WITH FORMAT: (FREE)              



              HYD. COND. ALONG ROWS FOR LAYER  33
 READING ON UNIT    3 WITH FORMAT: (FREE)              

   HORIZ. ANI. (COL./ROW) =   1.00000     FOR LAYER  33



            HORIZ. TO VERTICAL ANI. FOR LAYER  33
 READING ON UNIT    3 WITH FORMAT: (FREE)              



                   SPECIFIC STORAGE FOR LAYER  33
 READING ON UNIT    3 WITH FORMAT: (FREE)              



                     SPECIFIC YIELD FOR LAYER  33
 READING ON UNIT    3 WITH FORMAT: (FREE)              



              HYD. COND. ALONG ROWS FOR LAYER  34
 READING ON UNIT    3 WITH FORMAT: (FREE)              

   HORIZ. ANI. (COL./ROW) =   1.00000     FOR LAYER  34



            HORIZ. TO VERTICAL ANI. FOR LAYER  34
 READING ON UNIT    3 WITH FORMAT: (FREE)              



                   SPECIFIC STORAGE FOR LAYER  34
 READING ON UNIT    3 WITH FORMAT: (FREE)              



                     SPECIFIC YIELD FOR LAYER  34
 READING ON UNIT    3 WITH FORMAT: (FREE)              



              HYD. COND. ALONG ROWS FOR LAYER  35
 READING ON UNIT    3 WITH FORMAT: (FREE)              

   HORIZ. ANI. (COL./ROW) =   1.00000     FOR LAYER  35



            HORIZ. TO VERTICAL ANI. FOR LAYER  35
 READING ON UNIT    3 WITH FORMAT: (FREE)              



                   SPECIFIC STORAGE FOR LAYER  35
 READING ON UNIT    3 WITH FORMAT: (FREE)              



                     SPECIFIC YIELD FOR LAYER  35
 READING ON UNIT    3 WITH FORMAT: (FREE)              



              HYD. COND. ALONG ROWS FOR LAYER  36
 READING ON UNIT    3 WITH FORMAT: (FREE)              

   HORIZ. ANI. (COL./ROW) =   1.00000     FOR LAYER  36



            HORIZ. TO VERTICAL ANI. FOR LAYER  36
 READING ON UNIT    3 WITH FORMAT: (FREE)              



                   SPECIFIC STORAGE FOR LAYER  36
 READING ON UNIT    3 WITH FORMAT: (FREE)              



                     SPECIFIC YIELD FOR LAYER  36
 READING ON UNIT    3 WITH FORMAT: (FREE)              



              HYD. COND. ALONG ROWS FOR LAYER  37
 READING ON UNIT    3 WITH FORMAT: (FREE)              

   HORIZ. ANI. (COL./ROW) =   1.00000     FOR LAYER  37



            HORIZ. TO VERTICAL ANI. FOR LAYER  37
 READING ON UNIT    3 WITH FORMAT: (FREE)              



                   SPECIFIC STORAGE FOR LAYER  37
 READING ON UNIT    3 WITH FORMAT: (FREE)              



                     SPECIFIC YIELD FOR LAYER  37
 READING ON UNIT    3 WITH FORMAT: (FREE)              



              HYD. COND. ALONG ROWS FOR LAYER  38
 READING ON UNIT    3 WITH FORMAT: (FREE)              

   HORIZ. ANI. (COL./ROW) =   1.00000     FOR LAYER  38



            HORIZ. TO VERTICAL ANI. FOR LAYER  38
 READING ON UNIT    3 WITH FORMAT: (FREE)              



                   SPECIFIC STORAGE FOR LAYER  38
 READING ON UNIT    3 WITH FORMAT: (FREE)              



                     SPECIFIC YIELD FOR LAYER  38
 READING ON UNIT    3 WITH FORMAT: (FREE)              



              HYD. COND. ALONG ROWS FOR LAYER  39
 READING ON UNIT    3 WITH FORMAT: (FREE)              

   HORIZ. ANI. (COL./ROW) =   1.00000     FOR LAYER  39



            HORIZ. TO VERTICAL ANI. FOR LAYER  39
 READING ON UNIT    3 WITH FORMAT: (FREE)              



                   SPECIFIC STORAGE FOR LAYER  39
 READING ON UNIT    3 WITH FORMAT: (FREE)              



                     SPECIFIC YIELD FOR LAYER  39
 READING ON UNIT    3 WITH FORMAT: (FREE)              

    HYD. COND. ALONG ROWS =   4.00000     FOR LAYER  40

   HORIZ. ANI. (COL./ROW) =   1.00000     FOR LAYER  40

  HORIZ. TO VERTICAL ANI. =   1.00000     FOR LAYER  40

         SPECIFIC STORAGE =  1.000000E-04 FOR LAYER  40

           SPECIFIC YIELD =  8.000000E-02 FOR LAYER  40

 DRN -- DRAIN PACKAGE, VERSION 7, 5/2/2005 INPUT READ FROM UNIT   10
 #
 No named parameters
 MAXIMUM OF     75 ACTIVE DRAINS AT ONE TIME
 CELL-BY-CELL FLOWS WILL BE SAVED ON UNIT   40
 AUXILIARY DRAIN VARIABLE: IFACE           
 AUXILIARY DRAIN VARIABLE: CONDFACT        
 AUXILIARY DRAIN VARIABLE: CELLGRP         


     0 Drain parameters

 GHB -- GENERAL-HEAD BOUNDARY PACKAGE, VERSION 7, 5/2/2005
         INPUT READ FROM UNIT   11
 #
 No named parameters
 MAXIMUM OF     38 ACTIVE GHB CELLS AT ONE TIME
 CELL-BY-CELL FLOWS WILL BE SAVED ON UNIT   40
 AUXILIARY GHB VARIABLE: IFACE           
 AUXILIARY GHB VARIABLE: CONDFACT        
 AUXILIARY GHB VARIABLE: CELLGRP         


     0 GHB parameters

 WARNING READING LMT PACKAGE INPUT DATA:
 [STANDARD] HEADER NO LONGER SUPPORTED; [EXTENDED] HEADER USED INSTEAD.


 ***Link-MT3DMS Package v7***
 OPENING LINK-MT3DMS OUTPUT FILE: case2.hff                                                                                                                                                                                               
 ON UNIT NUMBER:   333
 FILE TYPE: UNFORMATTED
 HEADER OPTION: EXTENDED
 ***Link-MT3DMS Package v7***

1
                            STRESS PERIOD NO.    1, LENGTH =   10.00000    
                            -----------------------------------------------

                              NUMBER OF TIME STEPS =    10

                               MULTIPLIER FOR DELT =     1.000

                            INITIAL TIME STEP SIZE =   1.000000    

 DRAIN NO.  LAYER   ROW   COL     DRAIN EL.  CONDUCTANCE         IFACE           CONDFACT        CELLGRP         
 ----------------------------------------------------------------------------------------------------------------
      1      3      1     26       37.50           1.000           6.000           0.000          -1.000    
      2      4      1     27       36.50           1.000           6.000           0.000          -1.000    
      3      4      1     28       36.50           1.000           6.000           0.000          -1.000    
      4      5      1     29       35.50           1.000           6.000           0.000          -1.000    
      5      5      1     30       35.50           1.000           6.000           0.000          -1.000    
      6      6      1     31       34.50           1.000           6.000           0.000          -1.000    
      7      6      1     32       34.50           1.000           6.000           0.000          -1.000    
      8      7      1     33       33.50           1.000           6.000           0.000          -1.000    
      9      7      1     34       33.50           1.000           6.000           0.000          -1.000    
     10      8      1     35       32.50           1.000           6.000           0.000          -1.000    
     11      8      1     36       32.50           1.000           6.000           0.000          -1.000    
     12      9      1     37       31.50           1.000           6.000           0.000          -1.000    
     13      9      1     38       31.50           1.000           6.000           0.000          -1.000    
     14     10      1     39       30.50           1.000           6.000           0.000          -1.000    
     15     10      1     40       30.50           1.000           6.000           0.000          -1.000    
     16     11      1     41       29.50           1.000           6.000           0.000          -1.000    
     17     11      1     42       29.50           1.000           6.000           0.000          -1.000    
     18     12      1     43       28.50           1.000           6.000           0.000          -1.000    
     19     12      1     44       28.50           1.000           6.000           0.000          -1.000    
     20     13      1     45       27.50           1.000           6.000           0.000          -1.000    
     21     13      1     46       27.50           1.000           6.000           0.000          -1.000    
     22     14      1     47       26.50           1.000           6.000           0.000          -1.000    
     23     14      1     48       26.50           1.000           6.000           0.000          -1.000    
     24     15      1     49       25.50           1.000           6.000           0.000          -1.000    
     25     15      1     50       25.50           1.000           6.000           0.000          -1.000    
     26     16      1     51       24.50           1.000           6.000           0.000          -1.000    
     27     16      1     52       24.50           1.000           6.000           0.000          -1.000    
     28     17      1     53       23.50           1.000           6.000           0.000          -1.000    
     29     17      1     54       23.50           1.000           6.000           0.000          -1.000    
     30     18      1     55       22.50           1.000           6.000           0.000          -1.000    
     31     18      1     56       22.50           1.000           6.000           0.000          -1.000    
     32     19      1     57       21.50           1.000           6.000           0.000          -1.000    
     33     19      1     58       21.50           1.000           6.000           0.000          -1.000    
     34     20      1     59       20.50           1.000           6.000           0.000          -1.000    
     35     20      1     60       20.50           1.000           6.000           0.000          -1.000    
     36     21      1     61       19.50           1.000           6.000           0.000          -1.000    
     37     21      1     62       19.50           1.000           6.000           0.000          -1.000    
     38     22      1     63       18.50           1.000           6.000           0.000          -1.000    
     39     22      1     64       18.50           1.000           6.000           0.000          -1.000    
     40     23      1     65       17.50           1.000           6.000           0.000          -1.000    
     41     23      1     66       17.50           1.000           6.000           0.000          -1.000    
     42     24      1     67       16.50           1.000           6.000           0.000          -1.000    
     43     24      1     68       16.50           1.000           6.000           0.000          -1.000    
     44     25      1     69       15.50           1.000           6.000           0.000          -1.000    
     45     25      1     70       15.50           1.000           6.000           0.000          -1.000    
     46     26      1     71       14.50           1.000           6.000           0.000          -1.000    
     47     26      1     72       14.50           1.000           6.000           0.000          -1.000    
     48     27      1     73       13.50           1.000           6.000           0.000          -1.000    
     49     27      1     74       13.50           1.000           6.000           0.000          -1.000    
     50     28      1     75       12.50           1.000           6.000           0.000          -1.000    
     51     28      1     76       12.50           1.000           6.000           0.000          -1.000    
     52     29      1     77       11.50           1.000           6.000           0.000          -1.000    
     53     29      1     78       11.50           1.000           6.000           0.000          -1.000    
     54     30      1     79       10.50           1.000           6.000           0.000          -1.000    
     55     30      1     80       10.50           1.000           6.000           0.000          -1.000    
     56     31      1     81       9.500           1.000           6.000           0.000          -1.000    
     57     31      1     82       9.500           1.000           6.000           0.000          -1.000    
     58     32      1     83       8.500           1.000           6.000           0.000          -1.000    
     59     32      1     84       8.500           1.000           6.000           0.000          -1.000    
     60     33      1     85       7.500           1.000           6.000           0.000          -1.000    
     61     33      1     86       7.500           1.000           6.000           0.000          -1.000    
     62     34      1     87       6.500           1.000           6.000           0.000          -1.000    
     63     34      1     88       6.500           1.000           6.000           0.000          -1.000    
     64     35      1     89       5.500           1.000           6.000           0.000          -1.000    
     65     35      1     90       5.500           1.000           6.000           0.000          -1.000    
     66     36      1     91       4.500           1.000           6.000           0.000          -1.000    
     67     36      1     92       4.500           1.000           6.000           0.000          -1.000    
     68     37      1     93       3.500           1.000           6.000           0.000          -1.000    
     69     37      1     94       3.500           1.000           6.000           0.000          -1.000    
     70     38      1     95       2.500           1.000           6.000           0.000          -1.000    
     71     38      1     96       2.500           1.000           6.000           0.000          -1.000    
     72     39      1     97       1.500           1.000           6.000           0.000          -1.000    
     73     39      1     98       1.500           1.000           6.000           0.000          -1.000    
     74     40      1     99      0.5000           1.000           6.000           0.000          -1.000    
     75     40      1    100      0.5000           1.000           6.000           0.000          -1.000    

     75 DRAINS

 BOUND. NO. LAYER   ROW   COL     STAGE      CONDUCTANCE         IFACE           CONDFACT        CELLGRP         
 ----------------------------------------------------------------------------------------------------------------
      1      3      1     13       38.00          0.1000E+05       6.000           0.000          -1.000    
      2      4      1     13       38.00          0.1000E+05       6.000           0.000          -1.000    
      3      5      1     12       38.00          0.1000E+05       6.000           0.000          -1.000    
      4      6      1     12       38.00          0.1000E+05       6.000           0.000          -1.000    
      5      7      1     12       38.00          0.1000E+05       6.000           0.000          -1.000    
      6      8      1     11       38.00          0.1000E+05       6.000           0.000          -1.000    
      7      9      1     11       38.00          0.1000E+05       6.000           0.000          -1.000    
      8     10      1     11       38.00          0.1000E+05       6.000           0.000          -1.000    
      9     11      1     10       38.00          0.1000E+05       6.000           0.000          -1.000    
     10     12      1     10       38.00          0.1000E+05       6.000           0.000          -1.000    
     11     13      1     10       38.00          0.1000E+05       6.000           0.000          -1.000    
     12     14      1      9       38.00          0.1000E+05       6.000           0.000          -1.000    
     13     15      1      9       38.00          0.1000E+05       6.000           0.000          -1.000    
     14     16      1      9       38.00          0.1000E+05       6.000           0.000          -1.000    
     15     17      1      8       38.00          0.1000E+05       6.000           0.000          -1.000    
     16     18      1      8       38.00          0.1000E+05       6.000           0.000          -1.000    
     17     19      1      8       38.00          0.1000E+05       6.000           0.000          -1.000    
     18     20      1      7       38.00          0.1000E+05       6.000           0.000          -1.000    
     19     21      1      7       38.00          0.1000E+05       6.000           0.000          -1.000    
     20     22      1      7       38.00          0.1000E+05       6.000           0.000          -1.000    
     21     23      1      6       38.00          0.1000E+05       6.000           0.000          -1.000    
     22     24      1      6       38.00          0.1000E+05       6.000           0.000          -1.000    
     23     25      1      6       38.00          0.1000E+05       6.000           0.000          -1.000    
     24     26      1      5       38.00          0.1000E+05       6.000           0.000          -1.000    
     25     27      1      5       38.00          0.1000E+05       6.000           0.000          -1.000    
     26     28      1      5       38.00          0.1000E+05       6.000           0.000          -1.000    
     27     29      1      4       38.00          0.1000E+05       6.000           0.000          -1.000    
     28     30      1      4       38.00          0.1000E+05       6.000           0.000          -1.000    
     29     31      1      4       38.00          0.1000E+05       6.000           0.000          -1.000    
     30     32      1      3       38.00          0.1000E+05       6.000           0.000          -1.000    
     31     33      1      3       38.00          0.1000E+05       6.000           0.000          -1.000    
     32     34      1      3       38.00          0.1000E+05       6.000           0.000          -1.000    
     33     35      1      2       38.00          0.1000E+05       6.000           0.000          -1.000    
     34     36      1      2       38.00          0.1000E+05       6.000           0.000          -1.000    
     35     37      1      2       38.00          0.1000E+05       6.000           0.000          -1.000    
     36     38      1      1       38.00          0.1000E+05       6.000           0.000          -1.000    
     37     39      1      1       38.00          0.1000E+05       6.000           0.000          -1.000    
     38     40      1      1       38.00          0.1000E+05       6.000           0.000          -1.000    

     38 GHB CELLS
 
 SOLVING FOR HEAD 
                                                   Max.-Head-Change                         Max.-Flux-Residual
  Residual-Control   Outer-Iter.   Inner-Iter.     Column Row Layer    Maximum-Head-Change  Column Row Layer    Maximum-Flux-Residual          L2-NORM 
          0                 1          36           100    1    40      -0.3651567641E+02      99    1   40        -0.3750000000E+02      0.1912452614E+03
          0                 2          16            32    1     6      -0.1139401403E+01      28    1    4        -0.1241480204E+01      0.3143537751E+01
          0                 3          11            28    1     5      -0.1760812845E+00      34    1    8        -0.5126046965E+00      0.1452602973E+01
          0                 4           3            44    1    12      -0.1226743966E-01      44    1   12        -0.3853655051E-01      0.8304090988E-01
          0                 5           1            26    1     3       0.2529655545E-03      37    1   10         0.5998048444E-03      0.3878184659E-02
          0                 6           1            38    1    40      -0.5697568909E-03      40    1   36        -0.2010068767E-03      0.3155065481E-02
          0                 7           1            42    1    40      -0.2168682507E-03      37    1    9         0.2632521432E-03      0.2784992281E-02
          0                 8           1            42    1    40      -0.3893048038E-03      40    1   36        -0.1755356058E-03      0.2541973904E-02
          0                 9           1            42    1    40      -0.2003446172E-03      42    1   16        -0.1831039123E-03      0.2345696013E-02
          0                10           1            42    1    40      -0.2542490505E-03      44    1   36        -0.1492332340E-03      0.2190883270E-02
                                                   Max.-Head-Change                         Max.-Flux-Residual
  Residual-Control   Outer-Iter.   Inner-Iter.     Column Row Layer    Maximum-Head-Change  Column Row Layer    Maximum-Flux-Residual          L2-NORM 
          0                11           1            42    1    40      -0.1994758910E-03      42    1   16        -0.1566313453E-03      0.2055094853E-02
          0                12           1            42    1    40      -0.1823051376E-03      38    1   16        -0.1371853693E-03      0.1940880880E-02
          0                13           1            42    1    40      -0.2022756450E-03      42    1   16        -0.1298573475E-03      0.1824689035E-02
          0                14           1            42    1    40      -0.1420618410E-03      38    1   16        -0.1343605393E-03      0.1733000121E-02
          0                15           1            42    1    40      -0.1969142947E-03      42    1   16        -0.1097869078E-03      0.1623869891E-02
          0                16           1            40    1    40      -0.1173973790E-03      38    1   16        -0.1249510838E-03      0.1547219472E-02
          0                17           1            40    1    40      -0.1818398341E-03      42    1   16        -0.9471685897E-04      0.1443437720E-02
          0                18           1            40    1    40      -0.1009705850E-03      38    1   16        -0.1116399338E-03      0.1378066473E-02
          0                19           1            40    1    40      -0.1612416016E-03      42    1   16        -0.8283941446E-04      0.1282027616E-02
          0                20           1            40    1    40      -0.8893700747E-04      38    1   16        -0.9738595975E-04      0.1225388857E-02
                                                   Max.-Head-Change                         Max.-Flux-Residual
  Residual-Control   Outer-Iter.   Inner-Iter.     Column Row Layer    Maximum-Head-Change  Column Row Layer    Maximum-Flux-Residual          L2-NORM 
          0                21           1            40    1    40      -0.1399930477E-03      37    1   21        -0.7352456686E-04      0.1139281957E-02
          0                22           1            40    1    40      -0.7938869157E-04      33    1   21        -0.8713468466E-04      0.1089501638E-02
          0                23           1            40    1    40      -0.1207271564E-03      37    1   21        -0.6777251883E-04      0.1013811871E-02
          0                24           1            39    1    39      -0.7143096803E-04      33    1   21        -0.7901024654E-04      0.9695668853E-03
          0                25           1            39    1    39      -0.1041833180E-03      37    1   21        -0.6223382974E-04      0.9035839931E-03
          0                26           1            39    1    39      -0.6454081323E-04      33    1   21        -0.7114393460E-04      0.8639508796E-03
          0                27           1            38    1    40      -0.9015607758E-04      37    1   21        -0.5692696308E-04      0.8065465870E-03
          0                28           1            39    1    39      -0.5847899895E-04      33    1   21        -0.6375055932E-04      0.7708564974E-03
          0                29           1            38    1    40      -0.7823723737E-04      37    1   21        -0.5187580842E-04      0.7208903875E-03
          0                30           1            39    1    39      -0.5310024989E-04      33    1   21        -0.5690819847E-04      0.6886324343E-03
                                                   Max.-Head-Change                         Max.-Flux-Residual
  Residual-Control   Outer-Iter.   Inner-Iter.     Column Row Layer    Maximum-Head-Change  Column Row Layer    Maximum-Flux-Residual          L2-NORM 
          0                31           1            38    1    40      -0.6806209484E-04      37    1   21        -0.4710004848E-04      0.6450818130E-03
          0                32           1            39    1    39      -0.4829875886E-04      33    1   21        -0.5063899937E-04      0.6158479114E-03
          0                33           1            38    1    40      -0.5934811522E-04      37    1   21        -0.4261232777E-04      0.5778265149E-03
          0                34           1            39    1    39      -0.4398912834E-04      33    1   21        -0.4494013635E-04      0.5512806656E-03
          0                35           1            38    1    40      -0.5186672849E-04      37    1   21        -0.3841898794E-04      0.5180265813E-03
          0                36           1            39    1    39      -0.4009999770E-04      33    1   21        -0.3979481608E-04      0.4938867435E-03
          0                37           1            38    1    40      -0.4543039371E-04      37    1   21        -0.3452158705E-04      0.4647460452E-03
          0                38           1            39    1    39      -0.3657181428E-04      33    1   21        -0.3517670444E-04      0.4427723670E-03
          0                39           1            38    1    40      -0.3988239386E-04      37    1   21        -0.3091807719E-04      0.4171845023E-03
          0                40           1            39    1    39      -0.3335561928E-04      33    1   21        -0.3105263164E-04      0.3971709089E-03
                                                   Max.-Head-Change                         Max.-Flux-Residual
  Residual-Control   Outer-Iter.   Inner-Iter.     Column Row Layer    Maximum-Head-Change  Column Row Layer    Maximum-Flux-Residual          L2-NORM 
          0                41           1            38    1    40      -0.3509020444E-04      37    1   21        -0.2760347547E-04      0.3746561864E-03
          0                42           1            39    1    39      -0.3041186525E-04      33    1   21        -0.2738495800E-04      0.3564239213E-03
          0                43           1            38    1    40      -0.3094124804E-04      37    1   21        -0.2457021137E-04      0.3365725169E-03
          0                44           1            39    1    39      -0.2770906746E-04      33    1   21        -0.2413377743E-04      0.3199649740E-03
          0                45           1            38    1    40      -0.2733994391E-04      37    1   21        -0.2180835381E-04      0.3024270880E-03
          0                46           1            39    1    39      -0.2522233839E-04      33    1   21        -0.2125883483E-04      0.2873056159E-03
          0                47           1            38    1    40      -0.2420538250E-04      33    1   27        -0.1950876828E-04      0.2717826498E-03
          0                48           1            36    1    40      -0.2295913334E-04      37    1   27        -0.1881897384E-04      0.2580231679E-03
          0                49           1            38    1    40      -0.2146930525E-04      33    1   27        -0.1784913576E-04      0.2442599069E-03
          0                50           1            36    1    40      -0.2089234042E-04      37    1   27        -0.1706773449E-04      0.2317502291E-03
                                                   Max.-Head-Change                         Max.-Flux-Residual
  Residual-Control   Outer-Iter.   Inner-Iter.     Column Row Layer    Maximum-Head-Change  Column Row Layer    Maximum-Flux-Residual          L2-NORM 
          0                51           1            38    1    40      -0.1907428454E-04      33    1   27        -0.1630176979E-04      0.2195280416E-03
          0                52           1            36    1    40      -0.1898976295E-04      37    1   27        -0.1545489908E-04      0.2081658072E-03
          0                53           1            37    1    37      -0.1697891922E-04      33    1   27        -0.1486028418E-04      0.1972968245E-03
          0                54           1            36    1    40      -0.1723970287E-04      37    1   27        -0.1397310672E-04      0.1869879438E-03
          0                55           1            37    1    37      -0.1514362921E-04      33    1   27        -0.1351925124E-04      0.1773101490E-03
          0                56           1            36    1    40      -0.1563178477E-04      37    1   27        -0.1261475541E-04      0.1679676598E-03
          0                57           1            38    1    38      -0.1352738833E-04      33    1   27        -0.1227380994E-04      0.1593407857E-03
          0                58           1            36    1    40      -0.1415653905E-04      37    1   27        -0.1137213224E-04      0.1508840267E-03
          0                59           1            38    1    38      -0.1210002734E-04      33    1   27        -0.1111943271E-04      0.1431861588E-03
          0                60           1            35    1    39      -0.1280535395E-04      37    1   27        -0.1023756184E-04      0.1355401613E-03
                                                   Max.-Head-Change                         Max.-Flux-Residual
  Residual-Control   Outer-Iter.   Inner-Iter.     Column Row Layer    Maximum-Head-Change  Column Row Layer    Maximum-Flux-Residual          L2-NORM 
          0                61           1            38    1    38      -0.1083587798E-04      33    1   27        -0.1005180440E-04      0.1286649364E-03
          0                62           1            35    1    39      -0.1157431717E-04      37    1   27        -0.9203543101E-05      0.1217599749E-03
          0                63           1            38    1    38      -0.9714122832E-05      33    1   27        -0.9066777494E-05      0.1156142689E-03
          0                64           1            35    1    39      -0.1044972625E-04      37    1   27        -0.8262857307E-05      0.1093855048E-03
          0                65           1            37    1    35      -0.8726528570E-05      33    1   27        -0.8160357140E-05      0.1038875337E-03

    ------------------------------------------------
       NWT REQUIRED           65 OUTER ITERATIONS 
       AND A TOTAL OF        127 INNER ITERATIONS.
    ------------------------------------------------

 OUTPUT CONTROL FOR STRESS PERIOD    1   TIME STEP    1
    PRINT BUDGET
    SAVE HEAD FOR ALL LAYERS
    SAVE DRAWDOWN FOR ALL LAYERS
    SAVE BUDGET
 UBDSV1 SAVING "         STORAGE" ON UNIT  40 AT TIME STEP  1, STRESS PERIOD   1
 UBDSV2 SAVING "   CONSTANT HEAD" ON UNIT  40 AT TIME STEP  1, STRESS PERIOD   1
 UBDSV1 SAVING "FLOW RIGHT FACE " ON UNIT  40 AT TIME STEP  1, STRESS PERIOD   1
 UBDSV1 SAVING "FLOW LOWER FACE " ON UNIT  40 AT TIME STEP  1, STRESS PERIOD   1
 UBDSV4 SAVING "          DRAINS" ON UNIT  40 AT TIME STEP  1, STRESS PERIOD   1
 UBDSV4 SAVING " HEAD DEP BOUNDS" ON UNIT  40 AT TIME STEP  1, STRESS PERIOD   1

 SAVING SATURATED THICKNESS AND FLOW TERMS ON UNIT  333 FOR MT3DMS
 BY THE LINK-MT3DMS PACKAGE V7 AT TIME STEP    1, STRESS PERIOD    1


 HEAD WILL BE SAVED ON UNIT    2 AT END OF TIME STEP    1, STRESS PERIOD    1

 DRAWDOWN WILL BE SAVED ON UNIT   12 AT END OF TIME STEP    1, STRESS PERIOD    1
1
  VOLUMETRIC BUDGET FOR ENTIRE MODEL AT END OF TIME STEP    1, STRESS PERIOD   1
  ------------------------------------------------------------------------------

     CUMULATIVE VOLUMES      L**3       RATES FOR THIS TIME STEP      L**3/T
     ------------------                 ------------------------

           IN:                                      IN:
           ---                                      ---
             STORAGE     =           6.3004               STORAGE     =           6.3004
       CONSTANT HEAD     =           0.0000         CONSTANT HEAD     =           0.0000
              DRAINS     =           0.0000                DRAINS     =           0.0000
     HEAD DEP BOUNDS     =          37.1062       HEAD DEP BOUNDS     =          37.1062

                TOTAL IN =          43.4065                  TOTAL IN =          43.4065

          OUT:                                     OUT:
          ----                                     ----
             STORAGE     =           0.0000               STORAGE     =           0.0000
       CONSTANT HEAD     =           0.0000         CONSTANT HEAD     =           0.0000
              DRAINS     =          43.4092                DRAINS     =          43.4092
     HEAD DEP BOUNDS     =           0.0000       HEAD DEP BOUNDS     =           0.0000

               TOTAL OUT =          43.4092                 TOTAL OUT =          43.4092

                IN - OUT =      -2.6360E-03                  IN - OUT =      -2.6360E-03

     PERCENT DISCREPANCY =          -0.01         PERCENT DISCREPANCY =          -0.01






         TIME SUMMARY AT END OF TIME STEP    1 IN STRESS PERIOD    1
                    SECONDS     MINUTES      HOURS       DAYS        YEARS
                    -----------------------------------------------------------
   TIME STEP LENGTH  86400.      1440.0      24.000      1.0000     2.73785E-03
 STRESS PERIOD TIME  86400.      1440.0      24.000      1.0000     2.73785E-03
         TOTAL TIME  86400.      1440.0      24.000      1.0000     2.73785E-03
1
 
 SOLVING FOR HEAD 
                                                   Max.-Head-Change                         Max.-Flux-Residual
  Residual-Control   Outer-Iter.   Inner-Iter.     Column Row Layer    Maximum-Head-Change  Column Row Layer    Maximum-Flux-Residual          L2-NORM 
          0                 1          16            26    1     3      -0.7124719720E+00      32    1    6        -0.8000109737E-01      0.5365541260E+00
          0                 2           6            25    1     5      -0.1434930450E+00      26    1    5         0.4736496718E+00      0.1563367403E+01
          0                 3           6            37    1     9      -0.1495996245E-01      25    1    6        -0.1764571673E-01      0.4174081297E-01
          0                 4           2            34    1     7       0.1893893314E-02      33    1    9        -0.5831941331E-02      0.1383177727E-01
          0                 5           1            24    1    40      -0.1185592345E-03      33    1    9        -0.6479966978E-03      0.1760257787E-02
          0                 6           1            24    1    40      -0.3783186819E-03      24    1   36        -0.1079615766E-03      0.1320912266E-02
          0                 7           1            30    1    40      -0.7250525044E-04      28    1   10         0.1687986878E-03      0.1065776552E-02
          0                 8           1            30    1    40      -0.2102153108E-03      32    1   36        -0.6791393716E-04      0.9421093927E-03
          0                 9           1            34    1    40      -0.5632567476E-04      28    1   10         0.9507786342E-04      0.8402698542E-03
          0                10           1            36    1    40      -0.1904406428E-03      36    1   36        -0.5231369559E-04      0.7650397338E-03
                                                   Max.-Head-Change                         Max.-Flux-Residual
  Residual-Control   Outer-Iter.   Inner-Iter.     Column Row Layer    Maximum-Head-Change  Column Row Layer    Maximum-Flux-Residual          L2-NORM 
          0                11           1            38    1    40      -0.4381517246E-04      25    1   11        -0.5534059778E-04      0.7009871427E-03
          0                12           1            38    1    40      -0.1247961125E-03      36    1   36        -0.4127180705E-04      0.6316052911E-03
          0                13           1            38    1    40      -0.4191854797E-04      25    1   11        -0.4085909865E-04      0.5971250763E-03
          0                14           1            38    1    40      -0.7303499364E-04      36    1   22        -0.3734798409E-04      0.5434406390E-03
          0                15           1            39    1    39      -0.4109756047E-04      36    1   22        -0.3410849817E-04      0.5179877070E-03
          0                16           1            38    1    40      -0.5338191403E-04      36    1   22        -0.3488753433E-04      0.4831142940E-03
          0                17           1            39    1    39      -0.3916318031E-04      36    1   22        -0.3061531027E-04      0.4601769312E-03
          0                18           1            38    1    40      -0.4300468208E-04      36    1   22        -0.3233112483E-04      0.4334267417E-03
          0                19           1            39    1    39      -0.3644367288E-04      36    1   22        -0.2758154093E-04      0.4120869397E-03
          0                20           1            38    1    40      -0.3616229538E-04      36    1   22        -0.2976411810E-04      0.3900202967E-03
                                                   Max.-Head-Change                         Max.-Flux-Residual
  Residual-Control   Outer-Iter.   Inner-Iter.     Column Row Layer    Maximum-Head-Change  Column Row Layer    Maximum-Flux-Residual          L2-NORM 
          0                21           1            39    1    39      -0.3341626815E-04      36    1   22        -0.2487497244E-04      0.3702075343E-03
          0                22           1            38    1    40      -0.3111208249E-04      36    1   22        -0.2724637332E-04      0.3514344846E-03
          0                23           1            39    1    39      -0.3038561774E-04      36    1   22        -0.2246564017E-04      0.3331689576E-03
          0                24           1            38    1    40      -0.2717107769E-04      36    1   22        -0.2481666684E-04      0.3169246026E-03
          0                25           1            39    1    39      -0.2749904880E-04      37    1   27        -0.2053046344E-04      0.3001884557E-03
          0                26           1            38    1    40      -0.2399384812E-04      36    1   22        -0.2250617894E-04      0.2859605084E-03
          0                27           1            39    1    39      -0.2481654235E-04      37    1   27        -0.1888482106E-04      0.2706994765E-03
          0                28           1            38    1    40      -0.2136331301E-04      36    1   22        -0.2034084415E-04      0.2581155559E-03
          0                29           1            36    1    40      -0.2236374603E-04      37    1   27        -0.1731145881E-04      0.2442521098E-03
          0                30           1            38    1    40      -0.1913237343E-04      36    1   22        -0.1833776420E-04      0.2330369258E-03
                                                   Max.-Head-Change                         Max.-Flux-Residual
  Residual-Control   Outer-Iter.   Inner-Iter.     Column Row Layer    Maximum-Head-Change  Column Row Layer    Maximum-Flux-Residual          L2-NORM 
          0                31           1            36    1    40      -0.2017785556E-04      37    1   27        -0.1582244400E-04      0.2204798611E-03
          0                32           1            38    1    38      -0.1722097991E-04      36    1   22        -0.1650355597E-04      0.2104281435E-03
          0                33           1            36    1    40      -0.1819642828E-04      37    1   27        -0.1442647729E-04      0.1990798099E-03
          0                34           1            38    1    38      -0.1554427872E-04      36    1   22        -0.1483614849E-04      0.1900350675E-03
          0                35           1            36    1    40      -0.1640429819E-04      37    1   27        -0.1312730620E-04      0.1797967822E-03
          0                36           1            38    1    38      -0.1405711588E-04      36    1   22        -0.1332785857E-04      0.1716357149E-03
          0                37           1            36    1    40      -0.1478554867E-04      37    1   27        -0.1192459402E-04      0.1624113601E-03
          0                38           1            38    1    38      -0.1272839662E-04      36    1   22        -0.1196805047E-04      0.1550334407E-03
          0                39           1            36    1    40      -0.1332468424E-04      37    1   27        -0.1081531076E-04      0.1467315568E-03
          0                40           1            37    1    35      -0.1153865313E-04      36    1   22        -0.1074491902E-04      0.1400524252E-03
                                                   Max.-Head-Change                         Max.-Flux-Residual
  Residual-Control   Outer-Iter.   Inner-Iter.     Column Row Layer    Maximum-Head-Change  Column Row Layer    Maximum-Flux-Residual          L2-NORM 
          0                41           1            35    1    39      -0.1200816696E-04      37    1   27        -0.9794930520E-05      0.1325872438E-03
          0                42           1            37    1    35      -0.1048187322E-04      36    1   22        -0.9646529975E-05      0.1265345616E-03
          0                43           1            35    1    39      -0.1082654120E-04      37    1   27        -0.8858283024E-05      0.1198263796E-03
          0                44           1            37    1    35      -0.9524830492E-05      36    1   22        -0.8661366365E-05      0.1143371670E-03
          0                45           1            35    1    39      -0.9760993638E-05      37    1   27        -0.8000097523E-05      0.1083123556E-03
          0                46           1            37    1    35      -0.8656413286E-05      36    1   22        -0.7778580226E-05      0.1033312050E-03

    ------------------------------------------------
       NWT REQUIRED           46 OUTER ITERATIONS 
       AND A TOTAL OF         72 INNER ITERATIONS.
    ------------------------------------------------

 OUTPUT CONTROL FOR STRESS PERIOD    1   TIME STEP    2
    PRINT BUDGET
    SAVE HEAD FOR ALL LAYERS
    SAVE DRAWDOWN FOR ALL LAYERS
    SAVE BUDGET
 UBDSV1 SAVING "         STORAGE" ON UNIT  40 AT TIME STEP  2, STRESS PERIOD   1
 UBDSV2 SAVING "   CONSTANT HEAD" ON UNIT  40 AT TIME STEP  2, STRESS PERIOD   1
 UBDSV1 SAVING "FLOW RIGHT FACE " ON UNIT  40 AT TIME STEP  2, STRESS PERIOD   1
 UBDSV1 SAVING "FLOW LOWER FACE " ON UNIT  40 AT TIME STEP  2, STRESS PERIOD   1
 UBDSV4 SAVING "          DRAINS" ON UNIT  40 AT TIME STEP  2, STRESS PERIOD   1
 UBDSV4 SAVING " HEAD DEP BOUNDS" ON UNIT  40 AT TIME STEP  2, STRESS PERIOD   1

 SAVING SATURATED THICKNESS AND FLOW TERMS ON UNIT  333 FOR MT3DMS
 BY THE LINK-MT3DMS PACKAGE V7 AT TIME STEP    2, STRESS PERIOD    1


 HEAD WILL BE SAVED ON UNIT    2 AT END OF TIME STEP    2, STRESS PERIOD    1

 DRAWDOWN WILL BE SAVED ON UNIT   12 AT END OF TIME STEP    2, STRESS PERIOD    1
1
  VOLUMETRIC BUDGET FOR ENTIRE MODEL AT END OF TIME STEP    2, STRESS PERIOD   1
  ------------------------------------------------------------------------------

     CUMULATIVE VOLUMES      L**3       RATES FOR THIS TIME STEP      L**3/T
     ------------------                 ------------------------

           IN:                                      IN:
           ---                                      ---
             STORAGE     =           7.3664               STORAGE     =           1.0660
       CONSTANT HEAD     =           0.0000         CONSTANT HEAD     =           0.0000
              DRAINS     =           0.0000                DRAINS     =           0.0000
     HEAD DEP BOUNDS     =          76.5138       HEAD DEP BOUNDS     =          39.4076

                TOTAL IN =          83.8802                  TOTAL IN =          40.4736

          OUT:                                     OUT:
          ----                                     ----
             STORAGE     =           0.0000               STORAGE     =           0.0000
       CONSTANT HEAD     =           0.0000         CONSTANT HEAD     =           0.0000
              DRAINS     =          83.8854                DRAINS     =          40.4762
     HEAD DEP BOUNDS     =           0.0000       HEAD DEP BOUNDS     =           0.0000

               TOTAL OUT =          83.8854                 TOTAL OUT =          40.4762

                IN - OUT =      -5.2261E-03                  IN - OUT =      -2.5902E-03

     PERCENT DISCREPANCY =          -0.01         PERCENT DISCREPANCY =          -0.01






         TIME SUMMARY AT END OF TIME STEP    2 IN STRESS PERIOD    1
                    SECONDS     MINUTES      HOURS       DAYS        YEARS
                    -----------------------------------------------------------
   TIME STEP LENGTH  86400.      1440.0      24.000      1.0000     2.73785E-03
 STRESS PERIOD TIME 1.72800E+05  2880.0      48.000      2.0000     5.47570E-03
         TOTAL TIME 1.72800E+05  2880.0      48.000      2.0000     5.47570E-03
1
 
 SOLVING FOR HEAD 
                                                   Max.-Head-Change                         Max.-Flux-Residual
  Residual-Control   Outer-Iter.   Inner-Iter.     Column Row Layer    Maximum-Head-Change  Column Row Layer    Maximum-Flux-Residual          L2-NORM 
          0                 1          11            37    1     9      -0.1542188439E+00      29    1    7        -0.3842502270E-01      0.1625366617E+00
          0                 2           3            37    1     9       0.4672000927E-01      36    1    9        -0.1512290544E+00      0.2638472488E+00
          0                 3           4            56    1    40      -0.3435159262E-02      37    1    9         0.4496455408E-02      0.6995015365E-02
          0                 4           1            41    1    23      -0.1115410786E-03      44    1   22        -0.5987836271E-03      0.2629616560E-02
          0                 5           1            41    1    23      -0.1710648333E-03      44    1   22        -0.1448270143E-03      0.1128864036E-02
          0                 6           1            36    1    26      -0.1036875930E-03      46    1   16        -0.1004414773E-03      0.1047632925E-02
          0                 7           1            42    1    11      -0.1030245184E-03      44    1   22        -0.9416204969E-04      0.9316709649E-03
          0                 8           1            36    1    26      -0.6470247244E-04      29    1   19        -0.7391534780E-04      0.8725967295E-03
          0                 9           1            39    1    10      -0.8985323133E-04      44    1   22        -0.6765732368E-04      0.8031292078E-03
          0                10           1            36    1    34      -0.5276307521E-04      30    1   24        -0.6519736277E-04      0.7729345481E-03
                                                   Max.-Head-Change                         Max.-Flux-Residual
  Residual-Control   Outer-Iter.   Inner-Iter.     Column Row Layer    Maximum-Head-Change  Column Row Layer    Maximum-Flux-Residual          L2-NORM 
          0                11           1            36    1    36      -0.7794782900E-04      44    1   22        -0.5491005476E-04      0.7097152097E-03
          0                12           1            36    1    38      -0.4805985677E-04      30    1   24        -0.5689704764E-04      0.6853549437E-03
          0                13           1            36    1    38      -0.6731497093E-04      44    1   22        -0.4698732630E-04      0.6320604025E-03
          0                14           1            36    1    38      -0.4446169701E-04      30    1   24        -0.4937529303E-04      0.6090965035E-03
          0                15           1            36    1    40      -0.5780033442E-04      44    1   22        -0.4115608820E-04      0.5655828909E-03
          0                16           1            36    1    38      -0.4118256196E-04      30    1   24        -0.4307472221E-04      0.5435978340E-03
          0                17           1            36    1    40      -0.4996934122E-04      44    1   22        -0.3644753008E-04      0.5076456234E-03
          0                18           1            36    1    38      -0.3804728989E-04      30    1   24        -0.3782602172E-04      0.4867802705E-03
          0                19           1            36    1    40      -0.4357207598E-04      44    1   22        -0.3245406069E-04      0.4565076281E-03
          0                20           1            36    1    38      -0.3501111610E-04      30    1   24        -0.3340092434E-04      0.4369156255E-03
                                                   Max.-Head-Change                         Max.-Flux-Residual
  Residual-Control   Outer-Iter.   Inner-Iter.     Column Row Layer    Maximum-Head-Change  Column Row Layer    Maximum-Flux-Residual          L2-NORM 
          0                21           1            36    1    40      -0.3828928004E-04      44    1   22        -0.2898152718E-04      0.4109983089E-03
          0                22           1            37    1    37      -0.3211317174E-04      30    1   24        -0.2961813337E-04      0.3927688278E-03
          0                23           1            36    1    40      -0.3385768898E-04      44    1   22        -0.2592391218E-04      0.3702949235E-03
          0                24           1            37    1    37      -0.2935703759E-04      30    1   24        -0.2634622146E-04      0.3534542386E-03
          0                25           1            36    1    40      -0.3008418766E-04      44    1   22        -0.2321431680E-04      0.3337829586E-03
          0                26           1            37    1    37      -0.2675812395E-04      30    1   24        -0.2349058815E-04      0.3183100084E-03
          0                27           1            36    1    40      -0.2683070504E-04      44    1   22        -0.2080484794E-04      0.3009752373E-03
          0                28           1            38    1    38      -0.2434159347E-04      30    1   24        -0.2098165868E-04      0.2868172473E-03
          0                29           1            36    1    40      -0.2399770960E-04      44    1   22        -0.1865799817E-04      0.2714668420E-03
          0                30           1            38    1    38      -0.2210607782E-04      30    1   24        -0.1876665237E-04      0.2585518276E-03
                                                   Max.-Head-Change                         Max.-Flux-Residual
  Residual-Control   Outer-Iter.   Inner-Iter.     Column Row Layer    Maximum-Head-Change  Column Row Layer    Maximum-Flux-Residual          L2-NORM 
          0                31           1            35    1    39      -0.2151493275E-04      30    1   24        -0.1682822852E-04      0.2449101204E-03
          0                32           1            37    1    35      -0.2006133652E-04      30    1   24        -0.1680423281E-04      0.2331559670E-03
          0                33           1            35    1    39      -0.1932464204E-04      30    1   24        -0.1518901450E-04      0.2210004452E-03
          0                34           1            37    1    35      -0.1819430805E-04      30    1   24        -0.1506108009E-04      0.2103211240E-03
          0                35           1            35    1    39      -0.1738193488E-04      30    1   24        -0.1371328426E-04      0.1994676454E-03
          0                36           1            38    1    36      -0.1649290217E-04      30    1   24        -0.1350967653E-04      0.1897772716E-03
          0                37           1            35    1    37      -0.1566380513E-04      30    1   24        -0.1238384371E-04      0.1800704643E-03
          0                38           1            38    1    36      -0.1494336362E-04      30    1   24        -0.1212684577E-04      0.1712858269E-03
          0                39           1            35    1    37      -0.1413360793E-04      30    1   24        -0.1118545288E-04      0.1625926619E-03
          0                40           1            38    1    36      -0.1353361982E-04      30    1   24        -0.1089276350E-04      0.1546347166E-03
                                                   Max.-Head-Change                         Max.-Flux-Residual
  Residual-Control   Outer-Iter.   Inner-Iter.     Column Row Layer    Maximum-Head-Change  Column Row Layer    Maximum-Flux-Residual          L2-NORM 
          0                41           1            34    1    36      -0.1276511077E-04      30    1   24        -0.1010458334E-04      0.1468400825E-03
          0                42           1            38    1    36      -0.1225276106E-04      30    1   24        -0.9790274504E-05      0.1396347536E-03
          0                43           1            34    1    36      -0.1153677918E-04      30    1   24        -0.9129214931E-05      0.1326383068E-03
          0                44           1            38    1    36      -0.1109017306E-04      30    1   24        -0.8804407230E-05      0.1261168404E-03
          0                45           1            34    1    36      -0.1043068369E-04      30    1   24        -0.8248660322E-05      0.1198306835E-03
          0                46           1            38    1    36      -0.1003575042E-04      30    1   24        -0.7922024452E-05      0.1139297197E-03
          0                47           1            34    1    36      -0.9433282280E-05      30    1   24        -0.7453408443E-05      0.1082766144E-03
          0                48           1            38    1    36      -0.9080007736E-05      30    1   24        -0.7131561574E-05      0.1029380755E-03

    ------------------------------------------------
       NWT REQUIRED           48 OUTER ITERATIONS 
       AND A TOTAL OF         63 INNER ITERATIONS.
    ------------------------------------------------

 OUTPUT CONTROL FOR STRESS PERIOD    1   TIME STEP    3
    PRINT BUDGET
    SAVE HEAD FOR ALL LAYERS
    SAVE DRAWDOWN FOR ALL LAYERS
    SAVE BUDGET
 UBDSV1 SAVING "         STORAGE" ON UNIT  40 AT TIME STEP  3, STRESS PERIOD   1
 UBDSV2 SAVING "   CONSTANT HEAD" ON UNIT  40 AT TIME STEP  3, STRESS PERIOD   1
 UBDSV1 SAVING "FLOW RIGHT FACE " ON UNIT  40 AT TIME STEP  3, STRESS PERIOD   1
 UBDSV1 SAVING "FLOW LOWER FACE " ON UNIT  40 AT TIME STEP  3, STRESS PERIOD   1
 UBDSV4 SAVING "          DRAINS" ON UNIT  40 AT TIME STEP  3, STRESS PERIOD   1
 UBDSV4 SAVING " HEAD DEP BOUNDS" ON UNIT  40 AT TIME STEP  3, STRESS PERIOD   1

 SAVING SATURATED THICKNESS AND FLOW TERMS ON UNIT  333 FOR MT3DMS
 BY THE LINK-MT3DMS PACKAGE V7 AT TIME STEP    3, STRESS PERIOD    1


 HEAD WILL BE SAVED ON UNIT    2 AT END OF TIME STEP    3, STRESS PERIOD    1

 DRAWDOWN WILL BE SAVED ON UNIT   12 AT END OF TIME STEP    3, STRESS PERIOD    1
1
  VOLUMETRIC BUDGET FOR ENTIRE MODEL AT END OF TIME STEP    3, STRESS PERIOD   1
  ------------------------------------------------------------------------------

     CUMULATIVE VOLUMES      L**3       RATES FOR THIS TIME STEP      L**3/T
     ------------------                 ------------------------

           IN:                                      IN:
           ---                                      ---
             STORAGE     =           7.6015               STORAGE     =           0.2350
       CONSTANT HEAD     =           0.0000         CONSTANT HEAD     =           0.0000
              DRAINS     =           0.0000                DRAINS     =           0.0000
     HEAD DEP BOUNDS     =         116.3577       HEAD DEP BOUNDS     =          39.8439

                TOTAL IN =         123.9592                  TOTAL IN =          40.0790

          OUT:                                     OUT:
          ----                                     ----
             STORAGE     =       1.7527E-10               STORAGE     =       1.7527E-10
       CONSTANT HEAD     =           0.0000         CONSTANT HEAD     =           0.0000
              DRAINS     =         123.9670                DRAINS     =          40.0816
     HEAD DEP BOUNDS     =           0.0000       HEAD DEP BOUNDS     =           0.0000

               TOTAL OUT =         123.9670                 TOTAL OUT =          40.0816

                IN - OUT =      -7.8049E-03                  IN - OUT =      -2.5787E-03

     PERCENT DISCREPANCY =          -0.01         PERCENT DISCREPANCY =          -0.01






         TIME SUMMARY AT END OF TIME STEP    3 IN STRESS PERIOD    1
                    SECONDS     MINUTES      HOURS       DAYS        YEARS
                    -----------------------------------------------------------
   TIME STEP LENGTH  86400.      1440.0      24.000      1.0000     2.73785E-03
 STRESS PERIOD TIME 2.59200E+05  4320.0      72.000      3.0000     8.21355E-03
         TOTAL TIME 2.59200E+05  4320.0      72.000      3.0000     8.21355E-03
1
 
 SOLVING FOR HEAD 
                                                   Max.-Head-Change                         Max.-Flux-Residual
  Residual-Control   Outer-Iter.   Inner-Iter.     Column Row Layer    Maximum-Head-Change  Column Row Layer    Maximum-Flux-Residual          L2-NORM 
          0                 1           6            36    1     8      -0.2435479788E-01      32    1    8        -0.9007331235E-02      0.3929742562E-01
          0                 2           2            48    1    14      -0.1579293681E-02      26    1    7         0.1462893066E-01      0.2095296421E-01
          0                 3           1            33    1    29      -0.3206641522E-03      26    1    7         0.3140775941E-03      0.3689629419E-02
          0                 4           1            34    1    32      -0.3045743508E-03      24    1    8        -0.3193833495E-03      0.3442475801E-02
          0                 5           1            34    1    36      -0.3175045329E-03      46    1   14        -0.2110432085E-03      0.3253455777E-02
          0                 6           1            34    1    38      -0.2366031548E-03      25    1    9        -0.3004394205E-03      0.3075776696E-02
          0                 7           1            34    1    38      -0.3307578343E-03      33    1   27        -0.1821837674E-03      0.2913629689E-02
          0                 8           1            34    1    38      -0.1925982501E-03      25    1    9        -0.2921284157E-03      0.2756463719E-02
          0                 9           1            35    1    39      -0.3377177627E-03      37    1   27        -0.1618877951E-03      0.2606630162E-02
          0                10           1            35    1    39      -0.1607419571E-03      25    1    9        -0.2711247185E-03      0.2461906207E-02
                                                   Max.-Head-Change                         Max.-Flux-Residual
  Residual-Control   Outer-Iter.   Inner-Iter.     Column Row Layer    Maximum-Head-Change  Column Row Layer    Maximum-Flux-Residual          L2-NORM 
          0                11           1            35    1    39      -0.3348761457E-03      36    1   36        -0.1447360275E-03      0.2321157689E-02
          0                12           1            35    1    39      -0.1359341239E-03      25    1    9        -0.2433507956E-03      0.2186841381E-02
          0                13           1            35    1    39      -0.3232034392E-03      36    1   36        -0.1284118702E-03      0.2055209637E-02
          0                14           1            35    1    39      -0.1156725993E-03      25    1    9        -0.2135554561E-03      0.1931094526E-02
          0                15           1            35    1    39      -0.3053586809E-03      36    1   36        -0.1131367578E-03      0.1809234081E-02
          0                16           1            36    1    40      -0.9866378449E-04      25    1    9        -0.1848222917E-03      0.1695462243E-02
          0                17           1            36    1    40      -0.2838464976E-03      36    1   36        -0.9906213307E-04      0.1583815541E-02
          0                18           1            36    1    40      -0.8418818549E-04      25    1    9        -0.1586294060E-03      0.1480414358E-02
          0                19           1            36    1    40      -0.2603958699E-03      36    1   36        -0.8624985333E-04      0.1379079046E-02
          0                20           1            36    1    40      -0.7173199063E-04      25    1    9        -0.1354096240E-03      0.1285885160E-02
                                                   Max.-Head-Change                         Max.-Flux-Residual
  Residual-Control   Outer-Iter.   Inner-Iter.     Column Row Layer    Maximum-Head-Change  Column Row Layer    Maximum-Flux-Residual          L2-NORM 
          0                21           1            36    1    40      -0.2360548410E-03      36    1   36        -0.7470426709E-04      0.1194690235E-02
          0                22           1            37    1    39      -0.6102552574E-04      25    1    9        -0.1150932976E-03      0.1111380828E-02
          0                23           1            36    1    40      -0.2116494258E-03      36    1   36        -0.6439398422E-04      0.1029977155E-02
          0                24           1            38    1    40      -0.5183030255E-04      25    1    9        -0.9743684598E-04      0.9561080068E-03
          0                25           1            36    1    40      -0.1877988618E-03      36    1   36        -0.5526473549E-04      0.8840256024E-03
          0                26           1            38    1    38      -0.4397243548E-04      25    1    9        -0.8216954978E-04      0.8190560861E-03
          0                27           1            36    1    40      -0.1649943206E-03      36    1   36        -0.4724670919E-04      0.7557339570E-03
          0                28           1            38    1    38      -0.3725051097E-04      25    1    9        -0.6903914573E-04      0.6990442106E-03
          0                29           1            37    1    39      -0.1436454888E-03      36    1   36        -0.4025910141E-04      0.6438482981E-03
          0                30           1            38    1    38      -0.3152032819E-04      25    1    9        -0.5781551300E-04      0.5947562680E-03
                                                   Max.-Head-Change                         Max.-Flux-Residual
  Residual-Control   Outer-Iter.   Inner-Iter.     Column Row Layer    Maximum-Head-Change  Column Row Layer    Maximum-Flux-Residual          L2-NORM 
          0                31           1            38    1    40      -0.1240236267E-03      36    1   36        -0.3421359460E-04      0.5469965752E-03
          0                32           1            38    1    38      -0.2665335989E-04      25    1    9        -0.4828385909E-04      0.5047788128E-03
          0                33           1            38    1    40      -0.1062915509E-03      36    1   36        -0.2901759368E-04      0.4637301734E-03
          0                34           1            38    1    38      -0.2253277964E-04      25    1    9        -0.4023990169E-04      0.4276461612E-03
          0                35           1            38    1    40      -0.9052440625E-04      36    1   36        -0.2457743383E-04      0.3925722507E-03
          0                36           1            38    1    38      -0.1905319254E-04      25    1    9        -0.3348946842E-04      0.3618895522E-03
          0                37           1            38    1    40      -0.7670788341E-04      36    1   36        -0.2080141104E-04      0.3320672054E-03
          0                38           1            38    1    38      -0.1612051643E-04      26    1   10        -0.2798210932E-04      0.3060841854E-03
          0                39           1            38    1    40      -0.6475172185E-04      36    1   36        -0.1760238391E-04      0.2808248267E-03
          0                40           1            39    1    37      -0.1365446867E-04      26    1   10        -0.2344414986E-04      0.2588884456E-03
                                                   Max.-Head-Change                         Max.-Flux-Residual
  Residual-Control   Outer-Iter.   Inner-Iter.     Column Row Layer    Maximum-Head-Change  Column Row Layer    Maximum-Flux-Residual          L2-NORM 
          0                41           1            38    1    40      -0.5451299004E-04      36    1   36        -0.1489973496E-04      0.2375543844E-03
          0                42           1            39    1    37      -0.1158575483E-04      26    1   10        -0.1964736271E-04      0.2190719276E-03
          0                43           1            38    1    40      -0.4581843053E-04      36    1   36        -0.1262061016E-04      0.2010866489E-03
          0                44           1            39    1    37      -0.9842726080E-05      26    1   10        -0.1647585526E-04      0.1855315223E-03
          0                45           1            38    1    40      -0.3848303772E-04      36    1   36        -0.1070047335E-04      0.1703843059E-03
          0                46           1            39    1    37      -0.8373036732E-05      26    1   10        -0.1382911239E-04      0.1572968753E-03
          0                47           1            38    1    40      -0.3232395215E-04      36    1   36        -0.9083099485E-05      0.1445428180E-03
          0                48           1            39    1    37      -0.7132373426E-05      26    1   10        -0.1162111181E-04      0.1335275933E-03
          0                49           1            38    1    40      -0.2716951805E-04      36    1   36        -0.7720159942E-05      0.1227843170E-03
          0                50           1            39    1    37      -0.6083461148E-05      26    1   10        -0.9778940182E-05      0.1135048251E-03
                                                   Max.-Head-Change                         Max.-Flux-Residual
  Residual-Control   Outer-Iter.   Inner-Iter.     Column Row Layer    Maximum-Head-Change  Column Row Layer    Maximum-Flux-Residual          L2-NORM 
          0                51           1            38    1    40      -0.2286446785E-04      36    1   36        -0.6570553296E-05      0.1044471630E-03

    ------------------------------------------------
       NWT REQUIRED           51 OUTER ITERATIONS 
       AND A TOTAL OF         57 INNER ITERATIONS.
    ------------------------------------------------

 OUTPUT CONTROL FOR STRESS PERIOD    1   TIME STEP    4
    PRINT BUDGET
    SAVE HEAD FOR ALL LAYERS
    SAVE DRAWDOWN FOR ALL LAYERS
    SAVE BUDGET
 UBDSV1 SAVING "         STORAGE" ON UNIT  40 AT TIME STEP  4, STRESS PERIOD   1
 UBDSV2 SAVING "   CONSTANT HEAD" ON UNIT  40 AT TIME STEP  4, STRESS PERIOD   1
 UBDSV1 SAVING "FLOW RIGHT FACE " ON UNIT  40 AT TIME STEP  4, STRESS PERIOD   1
 UBDSV1 SAVING "FLOW LOWER FACE " ON UNIT  40 AT TIME STEP  4, STRESS PERIOD   1
 UBDSV4 SAVING "          DRAINS" ON UNIT  40 AT TIME STEP  4, STRESS PERIOD   1
 UBDSV4 SAVING " HEAD DEP BOUNDS" ON UNIT  40 AT TIME STEP  4, STRESS PERIOD   1

 SAVING SATURATED THICKNESS AND FLOW TERMS ON UNIT  333 FOR MT3DMS
 BY THE LINK-MT3DMS PACKAGE V7 AT TIME STEP    4, STRESS PERIOD    1


 HEAD WILL BE SAVED ON UNIT    2 AT END OF TIME STEP    4, STRESS PERIOD    1

 DRAWDOWN WILL BE SAVED ON UNIT   12 AT END OF TIME STEP    4, STRESS PERIOD    1
1
  VOLUMETRIC BUDGET FOR ENTIRE MODEL AT END OF TIME STEP    4, STRESS PERIOD   1
  ------------------------------------------------------------------------------

     CUMULATIVE VOLUMES      L**3       RATES FOR THIS TIME STEP      L**3/T
     ------------------                 ------------------------

           IN:                                      IN:
           ---                                      ---
             STORAGE     =           7.6546               STORAGE     =       5.3080E-02
       CONSTANT HEAD     =           0.0000         CONSTANT HEAD     =           0.0000
              DRAINS     =           0.0000                DRAINS     =           0.0000
     HEAD DEP BOUNDS     =         156.2898       HEAD DEP BOUNDS     =          39.9321

                TOTAL IN =         163.9444                  TOTAL IN =          39.9852

          OUT:                                     OUT:
          ----                                     ----
             STORAGE     =       1.3091E-09               STORAGE     =       1.1338E-09
       CONSTANT HEAD     =           0.0000         CONSTANT HEAD     =           0.0000
              DRAINS     =         163.9546                DRAINS     =          39.9877
     HEAD DEP BOUNDS     =           0.0000       HEAD DEP BOUNDS     =           0.0000

               TOTAL OUT =         163.9546                 TOTAL OUT =          39.9877

                IN - OUT =      -1.0284E-02                  IN - OUT =      -2.4910E-03

     PERCENT DISCREPANCY =          -0.01         PERCENT DISCREPANCY =          -0.01






         TIME SUMMARY AT END OF TIME STEP    4 IN STRESS PERIOD    1
                    SECONDS     MINUTES      HOURS       DAYS        YEARS
                    -----------------------------------------------------------
   TIME STEP LENGTH  86400.      1440.0      24.000      1.0000     2.73785E-03
 STRESS PERIOD TIME 3.45600E+05  5760.0      96.000      4.0000     1.09514E-02
         TOTAL TIME 3.45600E+05  5760.0      96.000      4.0000     1.09514E-02
1
 
 SOLVING FOR HEAD 
                                                   Max.-Head-Change                         Max.-Flux-Residual
  Residual-Control   Outer-Iter.   Inner-Iter.     Column Row Layer    Maximum-Head-Change  Column Row Layer    Maximum-Flux-Residual          L2-NORM 
          0                 1           4            36    1     8      -0.4867157051E-02      44    1   12        -0.1938678721E-02      0.8738126976E-02
          0                 2           1            30    1    22      -0.2086413917E-03      29    1   21        -0.1709754565E-03      0.1461499326E-02
          0                 3           1            34    1    18      -0.1374321251E-03      42    1   16        -0.1168990784E-03      0.1225820821E-02
          0                 4           1            36    1     8      -0.1186402869E-03      43    1   13        -0.1137173211E-03      0.1105908455E-02
          0                 5           1            39    1    10      -0.1135705585E-03      42    1   16        -0.9731146091E-04      0.1023649554E-02
          0                 6           1            36    1     8      -0.9621617928E-04      38    1   16        -0.9472161634E-04      0.9539582818E-03
          0                 7           1            39    1    10      -0.1011210544E-03      42    1   16        -0.8140419226E-04      0.8957199598E-03
          0                 8           1            36    1     8      -0.7674804240E-04      38    1   16        -0.8321607874E-04      0.8418221725E-03
          0                 9           1            39    1    10      -0.8822576897E-04      42    1   16        -0.6839886120E-04      0.7947135062E-03
          0                10           1            36    1     8      -0.6183543384E-04      38    1   16        -0.7255467114E-04      0.7497003060E-03
                                                   Max.-Head-Change                         Max.-Flux-Residual
  Residual-Control   Outer-Iter.   Inner-Iter.     Column Row Layer    Maximum-Head-Change  Column Row Layer    Maximum-Flux-Residual          L2-NORM 
          0                11           1            39    1    10      -0.7727845071E-04      42    1   16        -0.5764196627E-04      0.7094424662E-03
          0                12           1            36    1     8      -0.5084191220E-04      38    1   16        -0.6311093668E-04      0.6705492244E-03
          0                13           1            39    1    10      -0.6796105168E-04      42    1   16        -0.4875147462E-04      0.6351533621E-03
          0                14           1            35    1    39      -0.4278202555E-04      38    1   16        -0.5472615658E-04      0.6009572742E-03
          0                15           1            35    1    37      -0.6198057662E-04      42    1   16        -0.4140460499E-04      0.5694047775E-03
          0                16           1            35    1    39      -0.3834991207E-04      38    1   16        -0.4727536958E-04      0.5390789626E-03
          0                17           1            35    1    39      -0.5683200201E-04      42    1   16        -0.3531689265E-04      0.5107985337E-03
          0                18           1            35    1    39      -0.3445961454E-04      38    1   16        -0.4069091730E-04      0.4838026701E-03
          0                19           1            35    1    39      -0.5152982669E-04      42    1   16        -0.3024723267E-04      0.4584231319E-03
          0                20           1            35    1    39      -0.3104955119E-04      38    1   16        -0.3492199664E-04      0.4343570455E-03
                                                   Max.-Head-Change                         Max.-Flux-Residual
  Residual-Control   Outer-Iter.   Inner-Iter.     Column Row Layer    Maximum-Head-Change  Column Row Layer    Maximum-Flux-Residual          L2-NORM 
          0                21           1            36    1    38      -0.4632412570E-04      37    1   21        -0.2687566925E-04      0.4115919830E-03
          0                22           1            36    1    40      -0.2806224597E-04      38    1   16        -0.2991208584E-04      0.3901273241E-03
          0                23           1            36    1    40      -0.4139847786E-04      37    1   21        -0.2402236160E-04      0.3697262761E-03
          0                24           1            36    1    40      -0.2543397917E-04      38    1   16        -0.2559456556E-04      0.3505767671E-03
          0                25           1            36    1    40      -0.3683261160E-04      37    1   21        -0.2148059386E-04      0.3323080788E-03
          0                26           1            36    1    40      -0.2310672016E-04      33    1   21        -0.2201398252E-04      0.3152176221E-03
          0                27           1            36    1    40      -0.3267112789E-04      37    1   21        -0.1921218706E-04      0.2988645628E-03
          0                28           1            36    1    40      -0.2103803143E-04      33    1   21        -0.1964493839E-04      0.2836027251E-03
          0                29           1            37    1    39      -0.2892556742E-04      37    1   21        -0.1718501241E-04      0.2689640026E-03
          0                30           1            36    1    40      -0.1919207746E-04      33    1   21        -0.1750795622E-04      0.2553240296E-03
                                                   Max.-Head-Change                         Max.-Flux-Residual
  Residual-Control   Outer-Iter.   Inner-Iter.     Column Row Layer    Maximum-Head-Change  Column Row Layer    Maximum-Flux-Residual          L2-NORM 
          0                31           1            37    1    39      -0.2559008534E-04      37    1   21        -0.1537158522E-04      0.2422149814E-03
          0                32           1            36    1    40      -0.1753860019E-04      33    1   21        -0.1558790666E-04      0.2300123772E-03
          0                33           1            37    1    39      -0.2262759234E-04      33    1   27        -0.1387531222E-04      0.2182655884E-03
          0                34           1            36    1    40      -0.1605201902E-04      33    1   21        -0.1386825761E-04      0.2073366148E-03
          0                35           1            38    1    40      -0.2000841283E-04      33    1   27        -0.1259376728E-04      0.1968017658E-03
          0                36           1            36    1    40      -0.1471067506E-04      33    1   21        -0.1233194695E-04      0.1870017584E-03
          0                37           1            38    1    40      -0.1770011889E-04      33    1   27        -0.1143713428E-04      0.1775448545E-03
          0                38           1            36    1    40      -0.1349619949E-04      37    1   27        -0.1114070005E-04      0.1687464183E-03
          0                39           1            38    1    38      -0.1566685367E-04      33    1   27        -0.1039100025E-04      0.1602486294E-03
          0                40           1            36    1    40      -0.1239298590E-04      37    1   27        -0.1008895214E-04      0.1523398154E-03
                                                   Max.-Head-Change                         Max.-Flux-Residual
  Residual-Control   Outer-Iter.   Inner-Iter.     Column Row Layer    Maximum-Head-Change  Column Row Layer    Maximum-Flux-Residual          L2-NORM 
          0                41           1            38    1    38      -0.1387689410E-04      33    1   27        -0.9442983810E-05      0.1446961178E-03
          0                42           1            36    1    40      -0.1138775375E-04      37    1   27        -0.9133677992E-05      0.1375786579E-03
          0                43           1            38    1    38      -0.1230027567E-04      33    1   27        -0.8582417877E-05      0.1306964162E-03
          0                44           1            36    1    40      -0.1046918036E-04      37    1   27        -0.8266054579E-05      0.1242840749E-03
          0                45           1            38    1    38      -0.1091125741E-04      33    1   27        -0.7800082614E-05      0.1180816555E-03
          0                46           1            36    1    40      -0.9627595404E-05      37    1   27        -0.7478118562E-05      0.1122987222E-03
          0                47           1            38    1    38      -0.9686897510E-05      33    1   27        -0.7087977906E-05      0.1067041887E-03
          0                48           1            36    1    40      -0.8854727334E-05      37    1   27        -0.6762661400E-05      0.1014841297E-03

    ------------------------------------------------
       NWT REQUIRED           48 OUTER ITERATIONS 
       AND A TOTAL OF         51 INNER ITERATIONS.
    ------------------------------------------------

 OUTPUT CONTROL FOR STRESS PERIOD    1   TIME STEP    5
    PRINT BUDGET
    SAVE HEAD FOR ALL LAYERS
    SAVE DRAWDOWN FOR ALL LAYERS
    SAVE BUDGET
 UBDSV1 SAVING "         STORAGE" ON UNIT  40 AT TIME STEP  5, STRESS PERIOD   1
 UBDSV2 SAVING "   CONSTANT HEAD" ON UNIT  40 AT TIME STEP  5, STRESS PERIOD   1
 UBDSV1 SAVING "FLOW RIGHT FACE " ON UNIT  40 AT TIME STEP  5, STRESS PERIOD   1
 UBDSV1 SAVING "FLOW LOWER FACE " ON UNIT  40 AT TIME STEP  5, STRESS PERIOD   1
 UBDSV4 SAVING "          DRAINS" ON UNIT  40 AT TIME STEP  5, STRESS PERIOD   1
 UBDSV4 SAVING " HEAD DEP BOUNDS" ON UNIT  40 AT TIME STEP  5, STRESS PERIOD   1

 SAVING SATURATED THICKNESS AND FLOW TERMS ON UNIT  333 FOR MT3DMS
 BY THE LINK-MT3DMS PACKAGE V7 AT TIME STEP    5, STRESS PERIOD    1


 HEAD WILL BE SAVED ON UNIT    2 AT END OF TIME STEP    5, STRESS PERIOD    1

 DRAWDOWN WILL BE SAVED ON UNIT   12 AT END OF TIME STEP    5, STRESS PERIOD    1
1
  VOLUMETRIC BUDGET FOR ENTIRE MODEL AT END OF TIME STEP    5, STRESS PERIOD   1
  ------------------------------------------------------------------------------

     CUMULATIVE VOLUMES      L**3       RATES FOR THIS TIME STEP      L**3/T
     ------------------                 ------------------------

           IN:                                      IN:
           ---                                      ---
             STORAGE     =           7.6665               STORAGE     =       1.1917E-02
       CONSTANT HEAD     =           0.0000         CONSTANT HEAD     =           0.0000
              DRAINS     =           0.0000                DRAINS     =           0.0000
     HEAD DEP BOUNDS     =         196.2408       HEAD DEP BOUNDS     =          39.9510

                TOTAL IN =         203.9073                  TOTAL IN =          39.9629

          OUT:                                     OUT:
          ----                                     ----
             STORAGE     =       3.0736E-09               STORAGE     =       1.7645E-09
       CONSTANT HEAD     =           0.0000         CONSTANT HEAD     =           0.0000
              DRAINS     =         203.9201                DRAINS     =          39.9655
     HEAD DEP BOUNDS     =           0.0000       HEAD DEP BOUNDS     =           0.0000

               TOTAL OUT =         203.9201                 TOTAL OUT =          39.9655

                IN - OUT =      -1.2878E-02                  IN - OUT =      -2.5940E-03

     PERCENT DISCREPANCY =          -0.01         PERCENT DISCREPANCY =          -0.01






         TIME SUMMARY AT END OF TIME STEP    5 IN STRESS PERIOD    1
                    SECONDS     MINUTES      HOURS       DAYS        YEARS
                    -----------------------------------------------------------
   TIME STEP LENGTH  86400.      1440.0      24.000      1.0000     2.73785E-03
 STRESS PERIOD TIME 4.32000E+05  7200.0      120.00      5.0000     1.36893E-02
         TOTAL TIME 4.32000E+05  7200.0      120.00      5.0000     1.36893E-02
1
 
 SOLVING FOR HEAD 
                                                   Max.-Head-Change                         Max.-Flux-Residual
  Residual-Control   Outer-Iter.   Inner-Iter.     Column Row Layer    Maximum-Head-Change  Column Row Layer    Maximum-Flux-Residual          L2-NORM 
          0                 1           1            44    1    12      -0.4241151922E-03      44    1   12        -0.4685042156E-03      0.1969480691E-02
          0                 2           1            39    1    10      -0.3063944251E-03      39    1   13        -0.1774170217E-03      0.9499875883E-03
          0                 3           1            36    1     9      -0.1297407563E-03      43    1   13        -0.1096668487E-03      0.6721514833E-03
          0                 4           1            39    1    10      -0.8694918057E-04      40    1   14        -0.7890132019E-04      0.5348324819E-03
          0                 5           1            36    1     9      -0.1014036707E-03      43    1   13        -0.6965467776E-04      0.4663480023E-03
          0                 6           1            39    1    10      -0.4761904338E-04      40    1   14        -0.5525367780E-04      0.4078109576E-03
          0                 7           1            36    1     9      -0.7324254879E-04      43    1   13        -0.4565845970E-04      0.3658570363E-03
          0                 8           1            39    1    10      -0.3280508516E-04      40    1   14        -0.4111141865E-04      0.3313318094E-03
          0                 9           1            36    1     9      -0.5199211506E-04      43    1   13        -0.3294023523E-04      0.3031401678E-03
          0                10           1            39    1    10      -0.2564015153E-04      40    1   14        -0.3111073127E-04      0.2805685513E-03
                                                   Max.-Head-Change                         Max.-Flux-Residual
  Residual-Control   Outer-Iter.   Inner-Iter.     Column Row Layer    Maximum-Head-Change  Column Row Layer    Maximum-Flux-Residual          L2-NORM 
          0                11           1            36    1     9      -0.3738852127E-04      43    1   13        -0.2554529880E-04      0.2605144059E-03
          0                12           1            39    1    10      -0.2149194843E-04      40    1   14        -0.2401771800E-04      0.2442184731E-03
          0                13           1            36    1     9      -0.2769694303E-04      43    1   13        -0.2073505667E-04      0.2289044870E-03
          0                14           1            39    1    10      -0.1872354005E-04      42    1   16        -0.1979571132E-04      0.2160683095E-03
          0                15           1            36    1     9      -0.2125880316E-04      38    1   16        -0.1809024454E-04      0.2036402489E-03
          0                16           1            39    1    10      -0.1664580296E-04      42    1   16        -0.1683251963E-04      0.1928983630E-03
          0                17           1            36    1     9      -0.1688897385E-04      38    1   16        -0.1599250828E-04      0.1823812714E-03
          0                18           1            39    1    10      -0.1493184241E-04      42    1   16        -0.1440205881E-04      0.1730544569E-03
          0                19           1            36    1     9      -0.1383258040E-04      38    1   16        -0.1417589971E-04      0.1639206542E-03
          0                20           1            35    1    37      -0.1401293901E-04      42    1   16        -0.1236470752E-04      0.1556529500E-03
                                                   Max.-Head-Change                         Max.-Flux-Residual
  Residual-Control   Outer-Iter.   Inner-Iter.     Column Row Layer    Maximum-Head-Change  Column Row Layer    Maximum-Flux-Residual          L2-NORM 
          0                21           1            36    1    38      -0.1211821196E-04      38    1   16        -0.1252641351E-04      0.1475993697E-03
          0                22           1            36    1    38      -0.1305397740E-04      42    1   16        -0.1063801017E-04      0.1401913936E-03
          0                23           1            36    1    40      -0.1081441615E-04      38    1   16        -0.1100698080E-04      0.1330299626E-03
          0                24           1            36    1    38      -0.1201367772E-04      42    1   16        -0.9167567214E-05      0.1263595991E-03
          0                25           1            36    1    40      -0.9710867353E-05      38    1   16        -0.9614739810E-05      0.1199624847E-03
          0                26           1            36    1    38      -0.1094270718E-04      42    1   16        -0.7912328300E-05      0.1139456362E-03
          0                27           1            36    1    40      -0.8767060141E-05      38    1   16        -0.8355804880E-05      0.1082174354E-03
          0                28           1            36    1    38      -0.9885914935E-05      37    1   21        -0.6936223571E-05      0.1027885373E-03

    ------------------------------------------------
       NWT REQUIRED           28 OUTER ITERATIONS 
       AND A TOTAL OF         28 INNER ITERATIONS.
    ------------------------------------------------

 OUTPUT CONTROL FOR STRESS PERIOD    1   TIME STEP    6
    PRINT BUDGET
    SAVE HEAD FOR ALL LAYERS
    SAVE DRAWDOWN FOR ALL LAYERS
    SAVE BUDGET
 UBDSV1 SAVING "         STORAGE" ON UNIT  40 AT TIME STEP  6, STRESS PERIOD   1
 UBDSV2 SAVING "   CONSTANT HEAD" ON UNIT  40 AT TIME STEP  6, STRESS PERIOD   1
 UBDSV1 SAVING "FLOW RIGHT FACE " ON UNIT  40 AT TIME STEP  6, STRESS PERIOD   1
 UBDSV1 SAVING "FLOW LOWER FACE " ON UNIT  40 AT TIME STEP  6, STRESS PERIOD   1
 UBDSV4 SAVING "          DRAINS" ON UNIT  40 AT TIME STEP  6, STRESS PERIOD   1
 UBDSV4 SAVING " HEAD DEP BOUNDS" ON UNIT  40 AT TIME STEP  6, STRESS PERIOD   1

 SAVING SATURATED THICKNESS AND FLOW TERMS ON UNIT  333 FOR MT3DMS
 BY THE LINK-MT3DMS PACKAGE V7 AT TIME STEP    6, STRESS PERIOD    1


 HEAD WILL BE SAVED ON UNIT    2 AT END OF TIME STEP    6, STRESS PERIOD    1

 DRAWDOWN WILL BE SAVED ON UNIT   12 AT END OF TIME STEP    6, STRESS PERIOD    1
1
  VOLUMETRIC BUDGET FOR ENTIRE MODEL AT END OF TIME STEP    6, STRESS PERIOD   1
  ------------------------------------------------------------------------------

     CUMULATIVE VOLUMES      L**3       RATES FOR THIS TIME STEP      L**3/T
     ------------------                 ------------------------

           IN:                                      IN:
           ---                                      ---
             STORAGE     =           7.6691               STORAGE     =       2.6505E-03
       CONSTANT HEAD     =           0.0000         CONSTANT HEAD     =           0.0000
              DRAINS     =           0.0000                DRAINS     =           0.0000
     HEAD DEP BOUNDS     =         236.1959       HEAD DEP BOUNDS     =          39.9551

                TOTAL IN =         243.8650                  TOTAL IN =          39.9578

          OUT:                                     OUT:
          ----                                     ----
             STORAGE     =       5.0010E-09               STORAGE     =       1.9274E-09
       CONSTANT HEAD     =           0.0000         CONSTANT HEAD     =           0.0000
              DRAINS     =         243.8805                DRAINS     =          39.9604
     HEAD DEP BOUNDS     =           0.0000       HEAD DEP BOUNDS     =           0.0000

               TOTAL OUT =         243.8805                 TOTAL OUT =          39.9604

                IN - OUT =      -1.5488E-02                  IN - OUT =      -2.6093E-03

     PERCENT DISCREPANCY =          -0.01         PERCENT DISCREPANCY =          -0.01






         TIME SUMMARY AT END OF TIME STEP    6 IN STRESS PERIOD    1
                    SECONDS     MINUTES      HOURS       DAYS        YEARS
                    -----------------------------------------------------------
   TIME STEP LENGTH  86400.      1440.0      24.000      1.0000     2.73785E-03
 STRESS PERIOD TIME 5.18400E+05  8640.0      144.00      6.0000     1.64271E-02
         TOTAL TIME 5.18400E+05  8640.0      144.00      6.0000     1.64271E-02
1
 
 SOLVING FOR HEAD 
                                                   Max.-Head-Change                         Max.-Flux-Residual
  Residual-Control   Outer-Iter.   Inner-Iter.     Column Row Layer    Maximum-Head-Change  Column Row Layer    Maximum-Flux-Residual          L2-NORM 
          0                 1           1            44    1    12      -0.9918481216E-04      44    1   12        -0.1104995777E-03      0.4534398250E-03
          0                 2           1            42    1    11      -0.7809141384E-04      39    1   13        -0.4274898305E-04      0.2494363833E-03
          0                 3           1            36    1     9      -0.3551108256E-04      43    1   13        -0.2715117415E-04      0.1967019538E-03
          0                 4           1            42    1    11      -0.2312199111E-04      40    1   14        -0.2075294583E-04      0.1679162755E-03
          0                 5           1            36    1     8      -0.3294295495E-04      43    1   13        -0.1815720049E-04      0.1539983795E-03
          0                 6           1            42    1    11      -0.1231329542E-04      40    1   14        -0.1603778287E-04      0.1395362767E-03
          0                 7           1            36    1     8      -0.2714418346E-04      43    1   13        -0.1206701796E-04      0.1290854357E-03
          0                 8           1            42    1    11      -0.8157158984E-05      40    1   14        -0.1304083801E-04      0.1188616129E-03
          0                 9           1            36    1     8      -0.2067426622E-04      38    1   16        -0.8795192258E-05      0.1102870973E-03
          0                10           1            35    1    19      -0.6299318134E-05      43    1   15        -0.1071622739E-04      0.1025667165E-03

    ------------------------------------------------
       NWT REQUIRED           10 OUTER ITERATIONS 
       AND A TOTAL OF         10 INNER ITERATIONS.
    ------------------------------------------------

 OUTPUT CONTROL FOR STRESS PERIOD    1   TIME STEP    7
    PRINT BUDGET
    SAVE HEAD FOR ALL LAYERS
    SAVE DRAWDOWN FOR ALL LAYERS
    SAVE BUDGET
 UBDSV1 SAVING "         STORAGE" ON UNIT  40 AT TIME STEP  7, STRESS PERIOD   1
 UBDSV2 SAVING "   CONSTANT HEAD" ON UNIT  40 AT TIME STEP  7, STRESS PERIOD   1
 UBDSV1 SAVING "FLOW RIGHT FACE " ON UNIT  40 AT TIME STEP  7, STRESS PERIOD   1
 UBDSV1 SAVING "FLOW LOWER FACE " ON UNIT  40 AT TIME STEP  7, STRESS PERIOD   1
 UBDSV4 SAVING "          DRAINS" ON UNIT  40 AT TIME STEP  7, STRESS PERIOD   1
 UBDSV4 SAVING " HEAD DEP BOUNDS" ON UNIT  40 AT TIME STEP  7, STRESS PERIOD   1

 SAVING SATURATED THICKNESS AND FLOW TERMS ON UNIT  333 FOR MT3DMS
 BY THE LINK-MT3DMS PACKAGE V7 AT TIME STEP    7, STRESS PERIOD    1


 HEAD WILL BE SAVED ON UNIT    2 AT END OF TIME STEP    7, STRESS PERIOD    1

 DRAWDOWN WILL BE SAVED ON UNIT   12 AT END OF TIME STEP    7, STRESS PERIOD    1
1
  VOLUMETRIC BUDGET FOR ENTIRE MODEL AT END OF TIME STEP    7, STRESS PERIOD   1
  ------------------------------------------------------------------------------

     CUMULATIVE VOLUMES      L**3       RATES FOR THIS TIME STEP      L**3/T
     ------------------                 ------------------------

           IN:                                      IN:
           ---                                      ---
             STORAGE     =           7.6697               STORAGE     =       5.7830E-04
       CONSTANT HEAD     =           0.0000         CONSTANT HEAD     =           0.0000
              DRAINS     =           0.0000                DRAINS     =           0.0000
     HEAD DEP BOUNDS     =         276.1519       HEAD DEP BOUNDS     =          39.9560

                TOTAL IN =         283.8216                  TOTAL IN =          39.9566

          OUT:                                     OUT:
          ----                                     ----
             STORAGE     =       7.1140E-09               STORAGE     =       2.1131E-09
       CONSTANT HEAD     =           0.0000         CONSTANT HEAD     =           0.0000
              DRAINS     =         283.8397                DRAINS     =          39.9592
     HEAD DEP BOUNDS     =           0.0000       HEAD DEP BOUNDS     =           0.0000

               TOTAL OUT =         283.8397                 TOTAL OUT =          39.9592

                IN - OUT =      -1.8066E-02                  IN - OUT =      -2.5749E-03

     PERCENT DISCREPANCY =          -0.01         PERCENT DISCREPANCY =          -0.01






         TIME SUMMARY AT END OF TIME STEP    7 IN STRESS PERIOD    1
                    SECONDS     MINUTES      HOURS       DAYS        YEARS
                    -----------------------------------------------------------
   TIME STEP LENGTH  86400.      1440.0      24.000      1.0000     2.73785E-03
 STRESS PERIOD TIME 6.04800E+05  10080.      168.00      7.0000     1.91650E-02
         TOTAL TIME 6.04800E+05  10080.      168.00      7.0000     1.91650E-02
1
 
 SOLVING FOR HEAD 
                                                   Max.-Head-Change                         Max.-Flux-Residual
  Residual-Control   Outer-Iter.   Inner-Iter.     Column Row Layer    Maximum-Head-Change  Column Row Layer    Maximum-Flux-Residual          L2-NORM 
          0                 1           1            44    1    12      -0.2529474647E-04      44    1   12        -0.2712090860E-04      0.1404051739E-03
          0                 2           1            42    1    11      -0.3716091741E-04      39    1   13        -0.1327736993E-04      0.1163611694E-03
          0                 3           1            37    1    17      -0.1363797212E-04      38    1   16        -0.1049416741E-04      0.1048530519E-03

    ------------------------------------------------
       NWT REQUIRED            3 OUTER ITERATIONS 
       AND A TOTAL OF          3 INNER ITERATIONS.
    ------------------------------------------------

 OUTPUT CONTROL FOR STRESS PERIOD    1   TIME STEP    8
    PRINT BUDGET
    SAVE HEAD FOR ALL LAYERS
    SAVE DRAWDOWN FOR ALL LAYERS
    SAVE BUDGET
 UBDSV1 SAVING "         STORAGE" ON UNIT  40 AT TIME STEP  8, STRESS PERIOD   1
 UBDSV2 SAVING "   CONSTANT HEAD" ON UNIT  40 AT TIME STEP  8, STRESS PERIOD   1
 UBDSV1 SAVING "FLOW RIGHT FACE " ON UNIT  40 AT TIME STEP  8, STRESS PERIOD   1
 UBDSV1 SAVING "FLOW LOWER FACE " ON UNIT  40 AT TIME STEP  8, STRESS PERIOD   1
 UBDSV4 SAVING "          DRAINS" ON UNIT  40 AT TIME STEP  8, STRESS PERIOD   1
 UBDSV4 SAVING " HEAD DEP BOUNDS" ON UNIT  40 AT TIME STEP  8, STRESS PERIOD   1

 SAVING SATURATED THICKNESS AND FLOW TERMS ON UNIT  333 FOR MT3DMS
 BY THE LINK-MT3DMS PACKAGE V7 AT TIME STEP    8, STRESS PERIOD    1


 HEAD WILL BE SAVED ON UNIT    2 AT END OF TIME STEP    8, STRESS PERIOD    1

 DRAWDOWN WILL BE SAVED ON UNIT   12 AT END OF TIME STEP    8, STRESS PERIOD    1
1
  VOLUMETRIC BUDGET FOR ENTIRE MODEL AT END OF TIME STEP    8, STRESS PERIOD   1
  ------------------------------------------------------------------------------

     CUMULATIVE VOLUMES      L**3       RATES FOR THIS TIME STEP      L**3/T
     ------------------                 ------------------------

           IN:                                      IN:
           ---                                      ---
             STORAGE     =           7.6698               STORAGE     =       1.2396E-04
       CONSTANT HEAD     =           0.0000         CONSTANT HEAD     =           0.0000
              DRAINS     =           0.0000                DRAINS     =           0.0000
     HEAD DEP BOUNDS     =         316.1082       HEAD DEP BOUNDS     =          39.9562

                TOTAL IN =         323.7780                  TOTAL IN =          39.9564

          OUT:                                     OUT:
          ----                                     ----
             STORAGE     =       9.4802E-09               STORAGE     =       2.3662E-09
       CONSTANT HEAD     =           0.0000         CONSTANT HEAD     =           0.0000
              DRAINS     =         323.7986                DRAINS     =          39.9589
     HEAD DEP BOUNDS     =           0.0000       HEAD DEP BOUNDS     =           0.0000

               TOTAL OUT =         323.7986                 TOTAL OUT =          39.9589

                IN - OUT =      -2.0599E-02                  IN - OUT =      -2.5177E-03

     PERCENT DISCREPANCY =          -0.01         PERCENT DISCREPANCY =          -0.01






         TIME SUMMARY AT END OF TIME STEP    8 IN STRESS PERIOD    1
                    SECONDS     MINUTES      HOURS       DAYS        YEARS
                    -----------------------------------------------------------
   TIME STEP LENGTH  86400.      1440.0      24.000      1.0000     2.73785E-03
 STRESS PERIOD TIME 6.91200E+05  11520.      192.00      8.0000     2.19028E-02
         TOTAL TIME 6.91200E+05  11520.      192.00      8.0000     2.19028E-02
1
 
 SOLVING FOR HEAD 
          0                 1           1            42    1    11      -0.1318445745E-04      44    1   12        -0.1077491706E-04      0.9936676318E-04

    ------------------------------------------------
       NWT REQUIRED            1 OUTER ITERATIONS 
       AND A TOTAL OF          1 INNER ITERATIONS.
    ------------------------------------------------

 OUTPUT CONTROL FOR STRESS PERIOD    1   TIME STEP    9
    PRINT BUDGET
    SAVE HEAD FOR ALL LAYERS
    SAVE DRAWDOWN FOR ALL LAYERS
    SAVE BUDGET
 UBDSV1 SAVING "         STORAGE" ON UNIT  40 AT TIME STEP  9, STRESS PERIOD   1
 UBDSV2 SAVING "   CONSTANT HEAD" ON UNIT  40 AT TIME STEP  9, STRESS PERIOD   1
 UBDSV1 SAVING "FLOW RIGHT FACE " ON UNIT  40 AT TIME STEP  9, STRESS PERIOD   1
 UBDSV1 SAVING "FLOW LOWER FACE " ON UNIT  40 AT TIME STEP  9, STRESS PERIOD   1
 UBDSV4 SAVING "          DRAINS" ON UNIT  40 AT TIME STEP  9, STRESS PERIOD   1
 UBDSV4 SAVING " HEAD DEP BOUNDS" ON UNIT  40 AT TIME STEP  9, STRESS PERIOD   1

 SAVING SATURATED THICKNESS AND FLOW TERMS ON UNIT  333 FOR MT3DMS
 BY THE LINK-MT3DMS PACKAGE V7 AT TIME STEP    9, STRESS PERIOD    1


 HEAD WILL BE SAVED ON UNIT    2 AT END OF TIME STEP    9, STRESS PERIOD    1

 DRAWDOWN WILL BE SAVED ON UNIT   12 AT END OF TIME STEP    9, STRESS PERIOD    1
1
  VOLUMETRIC BUDGET FOR ENTIRE MODEL AT END OF TIME STEP    9, STRESS PERIOD   1
  ------------------------------------------------------------------------------

     CUMULATIVE VOLUMES      L**3       RATES FOR THIS TIME STEP      L**3/T
     ------------------                 ------------------------

           IN:                                      IN:
           ---                                      ---
             STORAGE     =           7.6698               STORAGE     =       2.2450E-05
       CONSTANT HEAD     =           0.0000         CONSTANT HEAD     =           0.0000
              DRAINS     =           0.0000                DRAINS     =           0.0000
     HEAD DEP BOUNDS     =         356.0645       HEAD DEP BOUNDS     =          39.9563

                TOTAL IN =         363.7343                  TOTAL IN =          39.9563

          OUT:                                     OUT:
          ----                                     ----
             STORAGE     =       1.5524E-08               STORAGE     =       6.0442E-09
       CONSTANT HEAD     =           0.0000         CONSTANT HEAD     =           0.0000
              DRAINS     =         363.7574                DRAINS     =          39.9588
     HEAD DEP BOUNDS     =           0.0000       HEAD DEP BOUNDS     =           0.0000

               TOTAL OUT =         363.7574                 TOTAL OUT =          39.9588

                IN - OUT =      -2.3102E-02                  IN - OUT =      -2.5253E-03

     PERCENT DISCREPANCY =          -0.01         PERCENT DISCREPANCY =          -0.01






         TIME SUMMARY AT END OF TIME STEP    9 IN STRESS PERIOD    1
                    SECONDS     MINUTES      HOURS       DAYS        YEARS
                    -----------------------------------------------------------
   TIME STEP LENGTH  86400.      1440.0      24.000      1.0000     2.73785E-03
 STRESS PERIOD TIME 7.77600E+05  12960.      216.00      9.0000     2.46407E-02
         TOTAL TIME 7.77600E+05  12960.      216.00      9.0000     2.46407E-02
1
 
 SOLVING FOR HEAD 
          0                 1           1            39    1    10      -0.5972373896E-04      38    1   14        -0.7604726306E-05      0.9481616540E-04

    ------------------------------------------------
       NWT REQUIRED            1 OUTER ITERATIONS 
       AND A TOTAL OF          1 INNER ITERATIONS.
    ------------------------------------------------

 OUTPUT CONTROL FOR STRESS PERIOD    1   TIME STEP   10
    PRINT BUDGET
    SAVE HEAD FOR ALL LAYERS
    SAVE DRAWDOWN FOR ALL LAYERS
    SAVE BUDGET
 UBDSV1 SAVING "         STORAGE" ON UNIT  40 AT TIME STEP 10, STRESS PERIOD   1
 UBDSV2 SAVING "   CONSTANT HEAD" ON UNIT  40 AT TIME STEP 10, STRESS PERIOD   1
 UBDSV1 SAVING "FLOW RIGHT FACE " ON UNIT  40 AT TIME STEP 10, STRESS PERIOD   1
 UBDSV1 SAVING "FLOW LOWER FACE " ON UNIT  40 AT TIME STEP 10, STRESS PERIOD   1
 UBDSV4 SAVING "          DRAINS" ON UNIT  40 AT TIME STEP 10, STRESS PERIOD   1
 UBDSV4 SAVING " HEAD DEP BOUNDS" ON UNIT  40 AT TIME STEP 10, STRESS PERIOD   1

 SAVING SATURATED THICKNESS AND FLOW TERMS ON UNIT  333 FOR MT3DMS
 BY THE LINK-MT3DMS PACKAGE V7 AT TIME STEP   10, STRESS PERIOD    1


 HEAD WILL BE SAVED ON UNIT    2 AT END OF TIME STEP   10, STRESS PERIOD    1

 DRAWDOWN WILL BE SAVED ON UNIT   12 AT END OF TIME STEP   10, STRESS PERIOD    1
1
  VOLUMETRIC BUDGET FOR ENTIRE MODEL AT END OF TIME STEP   10, STRESS PERIOD   1
  ------------------------------------------------------------------------------

     CUMULATIVE VOLUMES      L**3       RATES FOR THIS TIME STEP      L**3/T
     ------------------                 ------------------------

           IN:                                      IN:
           ---                                      ---
             STORAGE     =           7.6700               STORAGE     =       1.0832E-04
       CONSTANT HEAD     =           0.0000         CONSTANT HEAD     =           0.0000
              DRAINS     =           0.0000                DRAINS     =           0.0000
     HEAD DEP BOUNDS     =         396.0210       HEAD DEP BOUNDS     =          39.9566

                TOTAL IN =         403.6910                  TOTAL IN =          39.9567

          OUT:                                     OUT:
          ----                                     ----
             STORAGE     =       1.7856E-08               STORAGE     =       2.3312E-09
       CONSTANT HEAD     =           0.0000         CONSTANT HEAD     =           0.0000
              DRAINS     =         403.7159                DRAINS     =          39.9585
     HEAD DEP BOUNDS     =           0.0000       HEAD DEP BOUNDS     =           0.0000

               TOTAL OUT =         403.7159                 TOTAL OUT =          39.9585

                IN - OUT =      -2.4963E-02                  IN - OUT =      -1.8501E-03

     PERCENT DISCREPANCY =          -0.01         PERCENT DISCREPANCY =          -0.00






         TIME SUMMARY AT END OF TIME STEP   10 IN STRESS PERIOD    1
                    SECONDS     MINUTES      HOURS       DAYS        YEARS
                    -----------------------------------------------------------
   TIME STEP LENGTH  86400.      1440.0      24.000      1.0000     2.73785E-03
 STRESS PERIOD TIME 8.64000E+05  14400.      240.00      10.000     2.73785E-02
         TOTAL TIME 8.64000E+05  14400.      240.00      10.000     2.73785E-02
1
1
                            STRESS PERIOD NO.    2, LENGTH =   10.00000    
                            -----------------------------------------------

                              NUMBER OF TIME STEPS =    10

                               MULTIPLIER FOR DELT =     1.000

                            INITIAL TIME STEP SIZE =   1.000000    

 REUSING NON-PARAMETER DRAINS FROM LAST STRESS PERIOD

     75 DRAINS

 BOUND. NO. LAYER   ROW   COL     STAGE      CONDUCTANCE         IFACE           CONDFACT        CELLGRP         
 ----------------------------------------------------------------------------------------------------------------
      1      3      1     13       38.00           0.000           6.000           0.000          -1.000    
      2      4      1     13       38.00           0.000           6.000           0.000          -1.000    
      3      5      1     12       38.00           0.000           6.000           0.000          -1.000    
      4      6      1     12       38.00           0.000           6.000           0.000          -1.000    
      5      7      1     12       38.00           0.000           6.000           0.000          -1.000    
      6      8      1     11       38.00           0.000           6.000           0.000          -1.000    
      7      9      1     11       38.00           0.000           6.000           0.000          -1.000    
      8     10      1     11       38.00           0.000           6.000           0.000          -1.000    
      9     11      1     10       38.00           0.000           6.000           0.000          -1.000    
     10     12      1     10       38.00           0.000           6.000           0.000          -1.000    
     11     13      1     10       38.00           0.000           6.000           0.000          -1.000    
     12     14      1      9       38.00           0.000           6.000           0.000          -1.000    
     13     15      1      9       38.00           0.000           6.000           0.000          -1.000    
     14     16      1      9       38.00           0.000           6.000           0.000          -1.000    
     15     17      1      8       38.00           0.000           6.000           0.000          -1.000    
     16     18      1      8       38.00           0.000           6.000           0.000          -1.000    
     17     19      1      8       22.00          0.1000E+05       6.000           0.000          -1.000    
     18     20      1      7       22.00          0.1000E+05       6.000           0.000          -1.000    
     19     21      1      7       22.00          0.1000E+05       6.000           0.000          -1.000    
     20     22      1      7       22.00          0.1000E+05       6.000           0.000          -1.000    
     21     23      1      6       22.00          0.1000E+05       6.000           0.000          -1.000    
     22     24      1      6       22.00          0.1000E+05       6.000           0.000          -1.000    
     23     25      1      6       22.00          0.1000E+05       6.000           0.000          -1.000    
     24     26      1      5       22.00          0.1000E+05       6.000           0.000          -1.000    
     25     27      1      5       22.00          0.1000E+05       6.000           0.000          -1.000    
     26     28      1      5       22.00          0.1000E+05       6.000           0.000          -1.000    
     27     29      1      4       22.00          0.1000E+05       6.000           0.000          -1.000    
     28     30      1      4       22.00          0.1000E+05       6.000           0.000          -1.000    
     29     31      1      4       22.00          0.1000E+05       6.000           0.000          -1.000    
     30     32      1      3       22.00          0.1000E+05       6.000           0.000          -1.000    
     31     33      1      3       22.00          0.1000E+05       6.000           0.000          -1.000    
     32     34      1      3       22.00          0.1000E+05       6.000           0.000          -1.000    
     33     35      1      2       22.00          0.1000E+05       6.000           0.000          -1.000    
     34     36      1      2       22.00          0.1000E+05       6.000           0.000          -1.000    
     35     37      1      2       22.00          0.1000E+05       6.000           0.000          -1.000    
     36     38      1      1       22.00          0.1000E+05       6.000           0.000          -1.000    
     37     39      1      1       22.00          0.1000E+05       6.000           0.000          -1.000    
     38     40      1      1       22.00          0.1000E+05       6.000           0.000          -1.000    

     38 GHB CELLS
 
 SOLVING FOR HEAD 
                                                   Max.-Head-Change                         Max.-Flux-Residual
  Residual-Control   Outer-Iter.   Inner-Iter.     Column Row Layer    Maximum-Head-Change  Column Row Layer    Maximum-Flux-Residual          L2-NORM 
          0                 1          41             1    1    38      -0.1599995210E+02       6    1   24        -0.1600000000E+06      0.7504665216E+06
          0                 2          26            13    1     3      -0.4697036581E+01      24    1    5         0.9997939527E+01      0.3778974904E+02
          0                 3          16            51    1    16      -0.4860768955E+00      55    1   19        -0.1181544685E+01      0.3510831838E+01
          0                 4           6            67    1    24      -0.5010321273E-01      67    1   24        -0.1301824327E+00      0.3084739455E+00
          0                 5           1            55    1    18      -0.1035711920E-02      55    1   18        -0.2964577077E-02      0.8084111995E-02
          0                 6           5            56    1    40      -0.9004965518E-02      56    1   36        -0.4262304335E-03      0.4910643287E-02
          0                 7           1            62    1    22      -0.4662108224E-03      58    1   22        -0.4861162152E-02      0.1224975723E-01
          0                 8           1            41    1    11      -0.1339294274E-03      58    1   22        -0.3190413690E-03      0.1745428387E-02
          0                 9           1            35    1    16      -0.2623616839E-03      37    1   19        -0.1589247146E-03      0.1466762806E-02
          0                10           1            30    1    40      -0.1414976186E-03      35    1   17        -0.1403160566E-03      0.1400092480E-02
                                                   Max.-Head-Change                         Max.-Flux-Residual
  Residual-Control   Outer-Iter.   Inner-Iter.     Column Row Layer    Maximum-Head-Change  Column Row Layer    Maximum-Flux-Residual          L2-NORM 
          0                11           1            31    1    37      -0.1228281774E-03      29    1   19        -0.1233837083E-03      0.1233298499E-02
          0                12           1            30    1    40      -0.1099305310E-03      33    1   19        -0.1103461796E-03      0.1153780156E-02
          0                13           1            31    1    37      -0.1002794221E-03      37    1   19        -0.1080569698E-03      0.1090476680E-02
          0                14           1            30    1    40      -0.1058030741E-03      33    1   19        -0.9180601396E-04      0.1031177724E-02
          0                15           1            32    1    38      -0.8102472600E-04      37    1   19        -0.9834063894E-04      0.9853323560E-03
          0                16           1            31    1    39      -0.1006208735E-03      33    1   19        -0.7665141032E-04      0.9300954998E-03
          0                17           1            32    1    38      -0.7019512326E-04      37    1   19        -0.8842133411E-04      0.8961340005E-03
          0                18           1            32    1    40      -0.9095412666E-04      33    1   19        -0.6551166828E-04      0.8452864254E-03
          0                19           1            34    1    40      -0.6340857823E-04      37    1   19        -0.7866241327E-04      0.8171230649E-03
          0                20           1            32    1    40      -0.8091230320E-04      37    1   19        -0.5902559033E-04      0.7728571051E-03
                                                   Max.-Head-Change                         Max.-Flux-Residual
  Residual-Control   Outer-Iter.   Inner-Iter.     Column Row Layer    Maximum-Head-Change  Column Row Layer    Maximum-Flux-Residual          L2-NORM 
          0                21           1            34    1    40      -0.5856280667E-04      37    1   19        -0.7000456878E-04      0.7479464367E-03
          0                22           1            37    1    37      -0.7156579867E-04      37    1   19        -0.5372668153E-04      0.7096260356E-03
          0                23           1            35    1    39      -0.5451625623E-04      37    1   19        -0.6248755574E-04      0.6866560005E-03
          0                24           1            38    1    38      -0.6405926008E-04      37    1   19        -0.4911020378E-04      0.6537451653E-03
          0                25           1            35    1    39      -0.5078272222E-04      37    1   19        -0.5607361038E-04      0.6322943211E-03
          0                26           1            38    1    38      -0.5793158279E-04      37    1   19        -0.4502137688E-04      0.6036121314E-03
          0                27           1            36    1    40      -0.4729065560E-04      37    1   19        -0.5054657998E-04      0.5835457742E-03
          0                28           1            39    1    39      -0.5275195701E-04      37    1   19        -0.4136604349E-04      0.5581870048E-03
          0                29           1            41    1    35      -0.4404795628E-04      37    1   19        -0.4572683488E-04      0.5394119757E-03
          0                30           1            39    1    39      -0.4825743398E-04      37    1   19        -0.3807920783E-04      0.5167436582E-03
                                                   Max.-Head-Change                         Max.-Flux-Residual
  Residual-Control   Outer-Iter.   Inner-Iter.     Column Row Layer    Maximum-Head-Change  Column Row Layer    Maximum-Flux-Residual          L2-NORM 
          0                31           1            42    1    36      -0.4135044055E-04      37    1   19        -0.4148301375E-04      0.4991752326E-03
          0                32           1            39    1    39      -0.4425693242E-04      37    1   19        -0.3511119448E-04      0.4787481249E-03
          0                33           1            42    1    36      -0.3876911053E-04      37    1   19        -0.3771820457E-04      0.4623067357E-03
          0                34           1            39    1    39      -0.4066054429E-04      37    1   19        -0.3242163618E-04      0.4437913651E-03
          0                35           1            42    1    36      -0.3631323070E-04      37    1   19        -0.3435890034E-04      0.4284028883E-03
          0                36           1            39    1    39      -0.3740457123E-04      37    1   19        -0.2997665035E-04      0.4115490070E-03
          0                37           1            42    1    36      -0.3398840964E-04      37    1   19        -0.3134776676E-04      0.3971448902E-03
          0                38           1            40    1    40      -0.3445181605E-04      59    1   31        -0.2807495954E-04      0.3817559647E-03
          0                39           1            42    1    36      -0.3179530166E-04      37    1   19        -0.2863896049E-04      0.3682729484E-03
          0                40           1            40    1    40      -0.3170860664E-04      59    1   31        -0.2642315721E-04      0.3541917326E-03
                                                   Max.-Head-Change                         Max.-Flux-Residual
  Residual-Control   Outer-Iter.   Inner-Iter.     Column Row Layer    Maximum-Head-Change  Column Row Layer    Maximum-Flux-Residual          L2-NORM 
          0                41           1            42    1    36      -0.2979351041E-04      37    1   19        -0.2618934627E-04      0.3415983255E-03
          0                42           1            40    1    40      -0.2924842504E-04      59    1   31        -0.2482084471E-04      0.3287453989E-03
          0                43           1            42    1    36      -0.2783292869E-04      37    1   19        -0.2398512697E-04      0.3169191128E-03
          0                44           1            46    1    36      -0.2709908031E-04      59    1   31        -0.2326434119E-04      0.3051209873E-03
          0                45           1            42    1    36      -0.2599648998E-04      37    1   19        -0.2199080097E-04      0.2940604764E-03
          0                46           1            46    1    36      -0.2510128384E-04      59    1   31        -0.2177169139E-04      0.2832093293E-03
          0                47           1            42    1    36      -0.2428111634E-04      37    1   19        -0.2017901903E-04      0.2728669329E-03
          0                48           1            46    1    36      -0.2324110490E-04      59    1   31        -0.2034853571E-04      0.2628824014E-03
          0                49           1            42    1    36      -0.2267743096E-04      37    1   19        -0.1853079715E-04      0.2532110525E-03
          0                50           1            46    1    36      -0.2151190216E-04      59    1   31        -0.1899741480E-04      0.2440209756E-03
                                                   Max.-Head-Change                         Max.-Flux-Residual
  Residual-Control   Outer-Iter.   Inner-Iter.     Column Row Layer    Maximum-Head-Change  Column Row Layer    Maximum-Flux-Residual          L2-NORM 
          0                51           1            42    1    36      -0.2117707483E-04      37    1   19        -0.1702982385E-04      0.2349776874E-03
          0                52           1            46    1    36      -0.1990643252E-04      59    1   31        -0.1771913929E-04      0.2265161538E-03
          0                53           1            42    1    36      -0.1977272372E-04      37    1   19        -0.1566165383E-04      0.2180614623E-03
          0                54           1            46    1    36      -0.1841727563E-04      59    1   31        -0.1651326127E-04      0.2102681958E-03
          0                55           1            42    1    36      -0.1845781800E-04      59    1   31        -0.1451779582E-04      0.2023655739E-03
          0                56           1            46    1    36      -0.1703709865E-04      59    1   31        -0.1537840964E-04      0.1951854291E-03
          0                57           1            42    1    36      -0.1722638850E-04      59    1   31        -0.1351411146E-04      0.1878008755E-03
          0                58           1            46    1    36      -0.1575879619E-04      59    1   31        -0.1431255092E-04      0.1811833720E-03
          0                59           1            42    1    36      -0.1607295506E-04      59    1   31        -0.1257320065E-04      0.1742851179E-03
          0                60           1            46    1    36      -0.1457555154E-04      59    1   31        -0.1331319314E-04      0.1681840162E-03
                                                   Max.-Head-Change                         Max.-Flux-Residual
  Residual-Control   Outer-Iter.   Inner-Iter.     Column Row Layer    Maximum-Head-Change  Column Row Layer    Maximum-Flux-Residual          L2-NORM 
          0                61           1            43    1    37      -0.1499262140E-04      59    1   31        -0.1169261108E-04      0.1617423062E-03
          0                62           1            46    1    36      -0.1348086947E-04      59    1   31        -0.1237754253E-04      0.1561152279E-03
          0                63           1            43    1    37      -0.1398085549E-04      59    1   31        -0.1086963138E-04      0.1501021419E-03
          0                64           1            46    1    36      -0.1246858947E-04      59    1   31        -0.1150262460E-04      0.1449102362E-03
          0                65           1            43    1    37      -0.1303279099E-04      59    1   31        -0.1010139925E-04      0.1392995400E-03
          0                66           1            46    1    36      -0.1153288450E-04      59    1   31        -0.1068537532E-04      0.1345071853E-03
          0                67           1            43    1    37      -0.1214454834E-04      59    1   31        -0.9384984111E-05      0.1292741984E-03
          0                68           1            46    1    36      -0.1066825895E-04      59    1   31        -0.9922708927E-05      0.1248487384E-03
          0                69           1            43    1    37      -0.1131252521E-04      59    1   31        -0.8717448480E-05      0.1199702179E-03
          0                70           1            46    1    36      -0.9869540712E-05      59    1   31        -0.9211568710E-05      0.1158817225E-03
                                                   Max.-Head-Change                         Max.-Flux-Residual
  Residual-Control   Outer-Iter.   Inner-Iter.     Column Row Layer    Maximum-Head-Change  Column Row Layer    Maximum-Flux-Residual          L2-NORM 
          0                71           1            43    1    37      -0.1053337780E-04      59    1   31        -0.8095893776E-05      0.1113357568E-03
          0                72           1            46    1    36      -0.9131870183E-05      59    1   31        -0.8548962370E-05      0.1075568062E-03
          0                73           1            43    1    37      -0.9803995120E-05      59    1   31        -0.7517492691E-05      0.1033227181E-03

    ------------------------------------------------
       NWT REQUIRED           73 OUTER ITERATIONS 
       AND A TOTAL OF        162 INNER ITERATIONS.
    ------------------------------------------------

 OUTPUT CONTROL FOR STRESS PERIOD    2   TIME STEP    1
    PRINT BUDGET
    SAVE HEAD FOR ALL LAYERS
    SAVE DRAWDOWN FOR ALL LAYERS
    SAVE BUDGET
 UBDSV1 SAVING "         STORAGE" ON UNIT  40 AT TIME STEP  1, STRESS PERIOD   2
 UBDSV2 SAVING "   CONSTANT HEAD" ON UNIT  40 AT TIME STEP  1, STRESS PERIOD   2
 UBDSV1 SAVING "FLOW RIGHT FACE " ON UNIT  40 AT TIME STEP  1, STRESS PERIOD   2
 UBDSV1 SAVING "FLOW LOWER FACE " ON UNIT  40 AT TIME STEP  1, STRESS PERIOD   2
 UBDSV4 SAVING "          DRAINS" ON UNIT  40 AT TIME STEP  1, STRESS PERIOD   2
 UBDSV4 SAVING " HEAD DEP BOUNDS" ON UNIT  40 AT TIME STEP  1, STRESS PERIOD   2

 SAVING SATURATED THICKNESS AND FLOW TERMS ON UNIT  333 FOR MT3DMS
 BY THE LINK-MT3DMS PACKAGE V7 AT TIME STEP    1, STRESS PERIOD    2


 HEAD WILL BE SAVED ON UNIT    2 AT END OF TIME STEP    1, STRESS PERIOD    2

 DRAWDOWN WILL BE SAVED ON UNIT   12 AT END OF TIME STEP    1, STRESS PERIOD    2
1
  VOLUMETRIC BUDGET FOR ENTIRE MODEL AT END OF TIME STEP    1, STRESS PERIOD   2
  ------------------------------------------------------------------------------

     CUMULATIVE VOLUMES      L**3       RATES FOR THIS TIME STEP      L**3/T
     ------------------                 ------------------------

           IN:                                      IN:
           ---                                      ---
             STORAGE     =          40.8958               STORAGE     =          33.2258
       CONSTANT HEAD     =           0.0000         CONSTANT HEAD     =           0.0000
              DRAINS     =           0.0000                DRAINS     =           0.0000
     HEAD DEP BOUNDS     =         396.0210       HEAD DEP BOUNDS     =           0.0000

                TOTAL IN =         436.9168                  TOTAL IN =          33.2258

          OUT:                                     OUT:
          ----                                     ----
             STORAGE     =       1.7856E-08               STORAGE     =           0.0000
       CONSTANT HEAD     =           0.0000         CONSTANT HEAD     =           0.0000
              DRAINS     =         424.6761                DRAINS     =          20.9601
     HEAD DEP BOUNDS     =          12.2682       HEAD DEP BOUNDS     =          12.2682

               TOTAL OUT =         436.9442                 TOTAL OUT =          33.2283

                IN - OUT =      -2.7405E-02                  IN - OUT =      -2.4605E-03

     PERCENT DISCREPANCY =          -0.01         PERCENT DISCREPANCY =          -0.01






         TIME SUMMARY AT END OF TIME STEP    1 IN STRESS PERIOD    2
                    SECONDS     MINUTES      HOURS       DAYS        YEARS
                    -----------------------------------------------------------
   TIME STEP LENGTH  86400.      1440.0      24.000      1.0000     2.73785E-03
 STRESS PERIOD TIME  86400.      1440.0      24.000      1.0000     2.73785E-03
         TOTAL TIME 9.50400E+05  15840.      264.00      11.000     3.01164E-02
1
 
 SOLVING FOR HEAD 
                                                   Max.-Head-Change                         Max.-Flux-Residual
  Residual-Control   Outer-Iter.   Inner-Iter.     Column Row Layer    Maximum-Head-Change  Column Row Layer    Maximum-Flux-Residual          L2-NORM 
          0                 1          33            18    1     4      -0.3900544809E+01      68    1   24        -0.8000254554E-01      0.1559421637E+01
          0                 2          16            46    1    18      -0.5282019529E+00      51    1   20        -0.1952147273E+01      0.7606138368E+01
          0                 3          11            71    1    26      -0.9269316712E-01      72    1   27        -0.2808659487E+00      0.7042966988E+00
          0                 4           3            75    1    28      -0.6105505605E-02      75    1   28        -0.2013536021E-01      0.2816293764E-01
          0                 5           1            41    1    17      -0.3247347247E-03      41    1   17        -0.4884716909E-03      0.2537669921E-02
          0                 6           1            35    1    39      -0.2567966181E-03      43    1   23        -0.1532590966E-03      0.2209562523E-02
          0                 7           1            41    1    17      -0.2215682412E-03      72    1   30        -0.1854042488E-03      0.2103987022E-02
          0                 8           1            36    1    38      -0.1696597805E-03      60    1   30        -0.1561194203E-03      0.1991683426E-02
          0                 9           1            41    1    17      -0.1865792411E-03      62    1   38        -0.1534448054E-03      0.1912428292E-02
          0                10           1            38    1    38      -0.1389570239E-03      60    1   30        -0.1659457847E-03      0.1847154552E-02
                                                   Max.-Head-Change                         Max.-Flux-Residual
  Residual-Control   Outer-Iter.   Inner-Iter.     Column Row Layer    Maximum-Head-Change  Column Row Layer    Maximum-Flux-Residual          L2-NORM 
          0                11           1            38    1    40      -0.1735722640E-03      60    1   30        -0.1477457937E-03      0.1764265154E-02
          0                12           1            42    1    40      -0.1278309149E-03      60    1   30        -0.1639195983E-03      0.1715507929E-02
          0                13           1            40    1    40      -0.1588427594E-03      60    1   30        -0.1419280755E-03      0.1635207276E-02
          0                14           1            43    1    39      -0.1215797157E-03      60    1   30        -0.1558544806E-03      0.1590883808E-02
          0                15           1            47    1    39      -0.1450718496E-03      60    1   30        -0.1349571105E-03      0.1518203952E-02
          0                16           1            44    1    40      -0.1155733022E-03      60    1   30        -0.1462576665E-03      0.1475510660E-02
          0                17           1            47    1    39      -0.1337055232E-03      60    1   30        -0.1273300382E-03      0.1410426620E-02
          0                18           1            44    1    40      -0.1091544087E-03      60    1   30        -0.1366828758E-03      0.1369296289E-02
          0                19           1            59    1    22      -0.1233652092E-03      60    1   30        -0.1195478031E-03      0.1310602026E-02
          0                20           1            44    1    40      -0.1025890107E-03      60    1   30        -0.1274907027E-03      0.1271294702E-02
                                                   Max.-Head-Change                         Max.-Flux-Residual
  Residual-Control   Outer-Iter.   Inner-Iter.     Column Row Layer    Maximum-Head-Change  Column Row Layer    Maximum-Flux-Residual          L2-NORM 
          0                21           1            59    1    22      -0.1142286000E-03      60    1   30        -0.1119256399E-03      0.1218000127E-02
          0                22           1            44    1    40      -0.9613495243E-04      60    1   30        -0.1187584305E-03      0.1180645406E-02
          0                23           1            59    1    22      -0.1057365862E-03      60    1   30        -0.1046244647E-03      0.1132060216E-02
          0                24           1            46    1    40      -0.9007556196E-04      60    1   30        -0.1105020213E-03      0.1096663809E-02
          0                25           1            59    1    22      -0.9782033383E-04      60    1   30        -0.9771376459E-04      0.1052286938E-02
          0                26           1            46    1    40      -0.8439553332E-04      60    1   30        -0.1027211112E-03      0.1018788265E-02
          0                27           1            59    1    22      -0.9043853751E-04      60    1   30        -0.9121493268E-04      0.9782255760E-03
          0                28           1            46    1    40      -0.7902716939E-04      60    1   30        -0.9540849507E-04      0.9465364720E-03
          0                29           1            59    1    22      -0.8356210403E-04      60    1   30        -0.8512526250E-04      0.9094556637E-03
          0                30           1            46    1    40      -0.7397771626E-04      60    1   30        -0.8855273315E-04      0.8794805524E-03
                                                   Max.-Head-Change                         Max.-Flux-Residual
  Residual-Control   Outer-Iter.   Inner-Iter.     Column Row Layer    Maximum-Head-Change  Column Row Layer    Maximum-Flux-Residual          L2-NORM 
          0                31           1            59    1    22      -0.7716653596E-04      60    1   30        -0.7943034724E-04      0.8455881207E-03
          0                32           1            48    1    40      -0.6935582635E-04      60    1   30        -0.8213930407E-04      0.8172333905E-03
          0                33           1            59    1    22      -0.7122863922E-04      60    1   30        -0.7411039370E-04      0.7862629807E-03
          0                34           1            48    1    40      -0.6508401053E-04      60    1   30        -0.7615137585E-04      0.7594408251E-03
          0                35           1            59    1    22      -0.6572527746E-04      60    1   30        -0.6914345795E-04      0.7311472660E-03
          0                36           1            48    1    40      -0.6106332364E-04      60    1   30        -0.7057042414E-04      0.7057768463E-03
          0                37           1            58    1    22      -0.7002642170E-04      60    1   30        -0.6450713211E-04      0.6812996584E-03
          0                38           1            54    1    22      -0.5961000250E-04      60    1   30        -0.6450631584E-04      0.6554398793E-03
          0                39           1            58    1    22      -0.5923373677E-04      60    1   30        -0.6084874248E-04      0.6343600086E-03
          0                40           1            54    1    22      -0.5444621975E-04      60    1   30        -0.6054994655E-04      0.6103134734E-03
                                                   Max.-Head-Change                         Max.-Flux-Residual
  Residual-Control   Outer-Iter.   Inner-Iter.     Column Row Layer    Maximum-Head-Change  Column Row Layer    Maximum-Flux-Residual          L2-NORM 
          0                41           1            51    1    39      -0.5147099271E-04      60    1   30        -0.5632918061E-04      0.5892265274E-03
          0                42           1            54    1    22      -0.5086059135E-04      60    1   30        -0.5611822884E-04      0.5675434020E-03
          0                43           1            51    1    39      -0.4747251128E-04      60    1   30        -0.5252927930E-04      0.5481026003E-03
          0                44           1            54    1    22      -0.4763757879E-04      60    1   30        -0.5195449795E-04      0.5277784824E-03
          0                45           1            51    1    39      -0.4382925619E-04      60    1   30        -0.4902851791E-04      0.5099955540E-03
          0                46           1            54    1    22      -0.4461157091E-04      60    1   30        -0.4811587398E-04      0.4908533473E-03
          0                47           1            51    1    37      -0.4051635334E-04      60    1   30        -0.4575471080E-04      0.4745666058E-03
          0                48           1            54    1    22      -0.4176708861E-04      60    1   30        -0.4457092308E-04      0.4565374190E-03
          0                49           1            51    1    37      -0.3746219961E-04      60    1   30        -0.4269000308E-04      0.4416058963E-03
          0                50           1            54    1    22      -0.3909737605E-04      60    1   30        -0.4129157414E-04      0.4246308100E-03
                                                   Max.-Head-Change                         Max.-Flux-Residual
  Residual-Control   Outer-Iter.   Inner-Iter.     Column Row Layer    Maximum-Head-Change  Column Row Layer    Maximum-Flux-Residual          L2-NORM 
          0                51           1            51    1    37      -0.3463637716E-04      60    1   30        -0.3982203766E-04      0.4109347611E-03
          0                52           1            54    1    22      -0.3659149017E-04      60    1   30        -0.3825669607E-04      0.3949583402E-03
          0                53           1            51    1    37      -0.3202371023E-04      60    1   30        -0.3713841306E-04      0.3823894663E-03
          0                54           1            54    1    22      -0.3423751625E-04      60    1   30        -0.3544836413E-04      0.3673610657E-03
          0                55           1            51    1    37      -0.2961074953E-04      60    1   30        -0.3462717288E-04      0.3558190143E-03
          0                56           1            54    1    22      -0.3202464587E-04      60    1   30        -0.3285006984E-04      0.3416924025E-03
          0                57           1            51    1    37      -0.2738419175E-04      60    1   30        -0.3227725919E-04      0.3310843184E-03
          0                58           1            54    1    22      -0.2994360190E-04      60    1   30        -0.3044625043E-04      0.3178164885E-03
          0                59           1            54    1    18      -0.2536427725E-04      60    1   30        -0.3007855851E-04      0.3080571917E-03
          0                60           1            54    1    22      -0.2798641675E-04      60    1   30        -0.2822225504E-04      0.2956072801E-03
                                                   Max.-Head-Change                         Max.-Flux-Residual
  Residual-Control   Outer-Iter.   Inner-Iter.     Column Row Layer    Maximum-Head-Change  Column Row Layer    Maximum-Flux-Residual          L2-NORM 
          0                61           1            54    1    18      -0.2350559016E-04      60    1   30        -0.2802178649E-04      0.2866192726E-03
          0                62           1            54    1    22      -0.2614610050E-04      60    1   30        -0.2616438633E-04      0.2749478384E-03
          0                63           1            54    1    18      -0.2179161883E-04      60    1   30        -0.2609835286E-04      0.2666610351E-03
          0                64           1            54    1    22      -0.2441636247E-04      60    1   30        -0.2425991528E-04      0.2557296622E-03
          0                65           1            54    1    18      -0.2021032065E-04      60    1   30        -0.2430025050E-04      0.2480809306E-03
          0                66           1            54    1    22      -0.2279141309E-04      60    1   30        -0.2249706344E-04      0.2378520534E-03
          0                67           1            54    1    18      -0.1875061741E-04      60    1   30        -0.2261997203E-04      0.2307846491E-03
          0                68           1            54    1    22      -0.2126583100E-04      60    1   30        -0.2086496072E-04      0.2212215172E-03
          0                69           1            54    1    18      -0.1740237034E-04      60    1   30        -0.2105044899E-04      0.2146844880E-03
          0                70           1            54    1    22      -0.1983448070E-04      60    1   30        -0.1935359070E-04      0.2057512041E-03
                                                   Max.-Head-Change                         Max.-Flux-Residual
  Residual-Control   Outer-Iter.   Inner-Iter.     Column Row Layer    Maximum-Head-Change  Column Row Layer    Maximum-Flux-Residual          L2-NORM 
          0                71           1            54    1    18      -0.1615632990E-04      60    1   30        -0.1958500802E-04      0.1996988050E-03
          0                72           1            54    1    22      -0.1849245418E-04      60    1   30        -0.1795373072E-04      0.1913604003E-03
          0                73           1            54    1    18      -0.1500407436E-04      60    1   30        -0.1821733598E-04      0.1857515361E-03
          0                74           1            54    1    22      -0.1723504087E-04      60    1   30        -0.1665689243E-04      0.1779740604E-03
          0                75           1            54    1    18      -0.1393794028E-04      60    1   30        -0.1694145480E-04      0.1727717740E-03
          0                76           1            54    1    22      -0.1605770500E-04      60    1   30        -0.1545526281E-04      0.1655223821E-03
          0                77           1            54    1    18      -0.1295095658E-04      60    1   30        -0.1575170079E-04      0.1606933896E-03
          0                78           1            54    1    22      -0.1495607391E-04      60    1   30        -0.1434164933E-04      0.1539404189E-03
          0                79           1            54    1    18      -0.1203677953E-04      60    1   30        -0.1464270711E-04      0.1494546923E-03
          0                80           1            54    1    22      -0.1392593445E-04      60    1   30        -0.1330942872E-04      0.1431677288E-03
                                                   Max.-Head-Change                         Max.-Flux-Residual
  Residual-Control   Outer-Iter.   Inner-Iter.     Column Row Layer    Maximum-Head-Change  Column Row Layer    Maximum-Flux-Residual          L2-NORM 
          0                81           1            54    1    18      -0.1118963184E-04      60    1   30        -0.1360939062E-04      0.1389981245E-03
          0                82           1            54    1    22      -0.1296323020E-04      60    1   30        -0.1235249927E-04      0.1331480500E-03
          0                83           1            54    1    18      -0.1040424765E-04      60    1   30        -0.1264694048E-04      0.1292699810E-03
          0                84           1            54    1    22      -0.1206406094E-04      60    1   30        -0.1146523684E-04      0.1238290049E-03
          0                85           1            54    1    18      -0.9675821492E-05      60    1   30        -0.1175080597E-04      0.1202201533E-03
          0                86           1            54    1    22      -0.1122468590E-04      60    1   30        -0.1064245566E-04      0.1151618306E-03
          0                87           1            54    1    18      -0.8999963555E-05      60    1   30        -0.1091668770E-04      0.1118018936E-03
          0                88           1            54    1    22      -0.1044152065E-04      60    1   30        -0.9879371447E-05      0.1071011258E-03
          0                89           1            54    1    18      -0.8372659014E-05      60    1   30        -0.1014052779E-04      0.1039715942E-03

    ------------------------------------------------
       NWT REQUIRED           89 OUTER ITERATIONS 
       AND A TOTAL OF        148 INNER ITERATIONS.
    ------------------------------------------------

 OUTPUT CONTROL FOR STRESS PERIOD    2   TIME STEP    2
    PRINT BUDGET
    SAVE HEAD FOR ALL LAYERS
    SAVE DRAWDOWN FOR ALL LAYERS
    SAVE BUDGET
 UBDSV1 SAVING "         STORAGE" ON UNIT  40 AT TIME STEP  2, STRESS PERIOD   2
 UBDSV2 SAVING "   CONSTANT HEAD" ON UNIT  40 AT TIME STEP  2, STRESS PERIOD   2
 UBDSV1 SAVING "FLOW RIGHT FACE " ON UNIT  40 AT TIME STEP  2, STRESS PERIOD   2
 UBDSV1 SAVING "FLOW LOWER FACE " ON UNIT  40 AT TIME STEP  2, STRESS PERIOD   2
 UBDSV4 SAVING "          DRAINS" ON UNIT  40 AT TIME STEP  2, STRESS PERIOD   2
 UBDSV4 SAVING " HEAD DEP BOUNDS" ON UNIT  40 AT TIME STEP  2, STRESS PERIOD   2

 SAVING SATURATED THICKNESS AND FLOW TERMS ON UNIT  333 FOR MT3DMS
 BY THE LINK-MT3DMS PACKAGE V7 AT TIME STEP    2, STRESS PERIOD    2


 HEAD WILL BE SAVED ON UNIT    2 AT END OF TIME STEP    2, STRESS PERIOD    2

 DRAWDOWN WILL BE SAVED ON UNIT   12 AT END OF TIME STEP    2, STRESS PERIOD    2
1
  VOLUMETRIC BUDGET FOR ENTIRE MODEL AT END OF TIME STEP    2, STRESS PERIOD   2
  ------------------------------------------------------------------------------

     CUMULATIVE VOLUMES      L**3       RATES FOR THIS TIME STEP      L**3/T
     ------------------                 ------------------------

           IN:                                      IN:
           ---                                      ---
             STORAGE     =          54.1840               STORAGE     =          13.2882
       CONSTANT HEAD     =           0.0000         CONSTANT HEAD     =           0.0000
              DRAINS     =           0.0000                DRAINS     =           0.0000
     HEAD DEP BOUNDS     =         398.8841       HEAD DEP BOUNDS     =           2.8630

                TOTAL IN =         453.0680                  TOTAL IN =          16.1512

          OUT:                                     OUT:
          ----                                     ----
             STORAGE     =       1.7856E-08               STORAGE     =           0.0000
       CONSTANT HEAD     =           0.0000         CONSTANT HEAD     =           0.0000
              DRAINS     =         440.8296                DRAINS     =          16.1535
     HEAD DEP BOUNDS     =          12.2682       HEAD DEP BOUNDS     =           0.0000

               TOTAL OUT =         453.0977                 TOTAL OUT =          16.1535

                IN - OUT =      -2.9724E-02                  IN - OUT =      -2.3155E-03

     PERCENT DISCREPANCY =          -0.01         PERCENT DISCREPANCY =          -0.01






         TIME SUMMARY AT END OF TIME STEP    2 IN STRESS PERIOD    2
                    SECONDS     MINUTES      HOURS       DAYS        YEARS
                    -----------------------------------------------------------
   TIME STEP LENGTH  86400.      1440.0      24.000      1.0000     2.73785E-03
 STRESS PERIOD TIME 1.72800E+05  2880.0      48.000      2.0000     5.47570E-03
         TOTAL TIME 1.03680E+06  17280.      288.00      12.000     3.28542E-02
1
 
 SOLVING FOR HEAD 
                                                   Max.-Head-Change                         Max.-Flux-Residual
  Residual-Control   Outer-Iter.   Inner-Iter.     Column Row Layer    Maximum-Head-Change  Column Row Layer    Maximum-Flux-Residual          L2-NORM 
          0                 1          21            48    1    14      -0.1545023381E+01      43    1   20        -0.8000138502E-01      0.9392516119E+00
          0                 2          11            53    1    22      -0.2378109978E+00      63    1   25        -0.1014216801E+01      0.3542531918E+01
          0                 3           2            38    1    20      -0.1377466095E-01      70    1   27        -0.4495957976E-01      0.1109322066E+00
          0                 4           1            70    1    26      -0.4428216248E-03      38    1   22        -0.9782584472E-03      0.4752044340E-02
          0                 5           1            71    1    27      -0.6698106654E-03      67    1   31        -0.3863274457E-03      0.3625428887E-02
          0                 6           1            75    1    28      -0.6396650390E-03      71    1   31        -0.3574797705E-03      0.3366652352E-02
          0                 7           1            71    1    27      -0.3378511471E-03      74    1   29        -0.3837756452E-03      0.3115547887E-02
          0                 8           1            75    1    28      -0.6187954095E-03      71    1   31        -0.2909673565E-03      0.2774820224E-02
          0                 9           1            71    1    26      -0.2464282230E-03      74    1   29        -0.3544328457E-03      0.2667440054E-02
          0                10           1            71    1    27      -0.3997366663E-03      71    1   31        -0.2421216093E-03      0.2358535547E-02
                                                   Max.-Head-Change                         Max.-Flux-Residual
  Residual-Control   Outer-Iter.   Inner-Iter.     Column Row Layer    Maximum-Head-Change  Column Row Layer    Maximum-Flux-Residual          L2-NORM 
          0                11           1            67    1    24      -0.2326760859E-03      67    1   31        -0.2451619159E-03      0.2258212665E-02
          0                12           1            71    1    27      -0.2881642983E-03      71    1   31        -0.2092559121E-03      0.2078383730E-02
          0                13           1            67    1    24      -0.2191293204E-03      67    1   31        -0.2077500767E-03      0.1981779927E-02
          0                14           1            71    1    26      -0.2299082631E-03      71    1   31        -0.1823994854E-03      0.1860717454E-02
          0                15           1            67    1    24      -0.2007239575E-03      67    1   31        -0.1786769261E-03      0.1770485304E-02
          0                16           1            71    1    26      -0.1935258878E-03      48    1   28        -0.1657124245E-03      0.1678188563E-02
          0                17           1            67    1    24      -0.1802692558E-03      67    1   31        -0.1552149267E-03      0.1596763720E-02
          0                18           1            67    1    24      -0.1676718150E-03      48    1   28        -0.1541115145E-03      0.1521211301E-02
          0                19           1            67    1    24      -0.1605477050E-03      48    1   28        -0.1396835517E-03      0.1449401024E-02
          0                20           1            67    1    24      -0.1483649334E-03      48    1   28        -0.1427354745E-03      0.1384941833E-02
                                                   Max.-Head-Change                         Max.-Flux-Residual
  Residual-Control   Outer-Iter.   Inner-Iter.     Column Row Layer    Maximum-Head-Change  Column Row Layer    Maximum-Flux-Residual          L2-NORM 
          0                21           1            67    1    24      -0.1428171579E-03      48    1   28        -0.1300535579E-03      0.1322143183E-02
          0                22           1            62    1    25      -0.1324304919E-03      48    1   28        -0.1319761287E-03      0.1265812611E-02
          0                23           1            67    1    24      -0.1273107510E-03      48    1   28        -0.1209935623E-03      0.1210830217E-02
          0                24           1            59    1    39      -0.1197370519E-03      48    1   28        -0.1219673301E-03      0.1160871273E-02
          0                25           1            67    1    24      -0.1138536140E-03      48    1   28        -0.1124850916E-03      0.1112461221E-02
          0                26           1            59    1    39      -0.1087162626E-03      48    1   28        -0.1127218943E-03      0.1067699689E-02
          0                27           1            67    1    24      -0.1021714367E-03      48    1   28        -0.1045220532E-03      0.1024776819E-02
          0                28           1            58    1    38      -0.9899587252E-04      48    1   28        -0.1042059620E-03      0.9843589259E-03
          0                29           1            67    1    24      -0.9199721252E-04      48    1   28        -0.9709263941E-04      0.9460338265E-03
          0                30           1            58    1    38      -0.9038569158E-04      48    1   28        -0.9636995298E-04      0.9093086016E-03
                                                   Max.-Head-Change                         Max.-Flux-Residual
  Residual-Control   Outer-Iter.   Inner-Iter.     Column Row Layer    Maximum-Head-Change  Column Row Layer    Maximum-Flux-Residual          L2-NORM 
          0                31           1            55    1    39      -0.8359620999E-04      48    1   28        -0.9017718733E-04      0.8748675283E-03
          0                32           1            58    1    38      -0.8268483213E-04      48    1   28        -0.8916053042E-04      0.8413251166E-03
          0                33           1            55    1    39      -0.7665981022E-04      48    1   28        -0.8375037112E-04      0.8101980302E-03
          0                34           1            58    1    38      -0.7577619927E-04      48    1   28        -0.8252541176E-04      0.7794318538E-03
          0                35           1            55    1    39      -0.7041127783E-04      48    1   28        -0.7778373211E-04      0.7511622803E-03
          0                36           1            58    1    38      -0.6956064709E-04      48    1   28        -0.7641536686E-04      0.7228433676E-03
          0                37           1            55    1    39      -0.6476568337E-04      48    1   28        -0.7224762206E-04      0.6970632906E-03
          0                38           1            58    1    36      -0.6399732983E-04      48    1   28        -0.7078497694E-04      0.6709218909E-03
          0                39           1            55    1    39      -0.5965046573E-04      46    1   26        -0.6724940064E-04      0.6473318078E-03
          0                40           1            58    1    36      -0.5896968246E-04      48    1   28        -0.6559279888E-04      0.6231438445E-03
                                                   Max.-Head-Change                         Max.-Flux-Residual
  Residual-Control   Outer-Iter.   Inner-Iter.     Column Row Layer    Maximum-Head-Change  Column Row Layer    Maximum-Flux-Residual          L2-NORM 
          0                41           1            55    1    39      -0.5500359921E-04      46    1   26        -0.6264035332E-04      0.6014972921E-03
          0                42           1            52    1    40      -0.5457911787E-04      48    1   28        -0.6080123757E-04      0.5790742215E-03
          0                43           1            55    1    39      -0.5077193117E-04      46    1   26        -0.5833253334E-04      0.5591659108E-03
          0                44           1            52    1    40      -0.5063850746E-04      48    1   28        -0.5637628527E-04      0.5383470723E-03
          0                45           1            55    1    39      -0.4690975438E-04      46    1   26        -0.5430981423E-04      0.5200038541E-03
          0                46           1            52    1    40      -0.4701100368E-04      48    1   28        -0.5228720602E-04      0.5006506702E-03
          0                47           1            55    1    39      -0.4337760836E-04      46    1   26        -0.5055589705E-04      0.4837246782E-03
          0                48           1            52    1    40      -0.4366749770E-04      48    1   28        -0.4850621244E-04      0.4657162398E-03
          0                49           1            55    1    39      -0.4014128479E-04      46    1   26        -0.4705469547E-04      0.4500796887E-03
          0                50           1            51    1    39      -0.4059372302E-04      48    1   28        -0.4500815709E-04      0.4333093868E-03
                                                   Max.-Head-Change                         Max.-Flux-Residual
  Residual-Control   Outer-Iter.   Inner-Iter.     Column Row Layer    Maximum-Head-Change  Column Row Layer    Maximum-Flux-Residual          L2-NORM 
          0                51           1            55    1    39      -0.3717100065E-04      46    1   26        -0.4379058191E-04      0.4188506188E-03
          0                52           1            51    1    39      -0.3775749162E-04      48    1   28        -0.4177024678E-04      0.4032235612E-03
          0                53           1            54    1    36      -0.3444145988E-04      46    1   26        -0.4074853879E-04      0.3898440346E-03
          0                54           1            51    1    39      -0.3513201114E-04      48    1   28        -0.3877178577E-04      0.3752750573E-03
          0                55           1            54    1    36      -0.3194758036E-04      46    1   26        -0.3791424450E-04      0.3628870356E-03
          0                56           1            51    1    39      -0.3269962624E-04      48    1   28        -0.3599394799E-04      0.3492991583E-03
          0                57           1            54    1    36      -0.2964687395E-04      46    1   26        -0.3527411758E-04      0.3378239330E-03
          0                58           1            51    1    39      -0.3044443773E-04      48    1   28        -0.3341957600E-04      0.3251471528E-03
          0                59           1            54    1    36      -0.2752218435E-04      46    1   26        -0.3281533066E-04      0.3145136549E-03
          0                60           1            51    1    39      -0.2835209654E-04      48    1   28        -0.3103300423E-04      0.3026839918E-03
                                                   Max.-Head-Change                         Max.-Flux-Residual
  Residual-Control   Outer-Iter.   Inner-Iter.     Column Row Layer    Maximum-Head-Change  Column Row Layer    Maximum-Flux-Residual          L2-NORM 
          0                61           1            54    1    36      -0.2555822927E-04      46    1   26        -0.3052580442E-04      0.2928277052E-03
          0                62           1            51    1    39      -0.2640962327E-04      48    1   28        -0.2881990486E-04      0.2817864410E-03
          0                63           1            48    1    40      -0.2374930546E-04      46    1   26        -0.2839419059E-04      0.2726485360E-03
          0                64           1            51    1    39      -0.2460525370E-04      48    1   28        -0.2676715130E-04      0.2623415975E-03
          0                65           1            48    1    40      -0.2209455920E-04      46    1   26        -0.2640984579E-04      0.2538682346E-03
          0                66           1            51    1    39      -0.2292830028E-04      48    1   28        -0.2486270054E-04      0.2442456874E-03
          0                67           1            48    1    40      -0.2055644493E-04      46    1   26        -0.2456280097E-04      0.2363874491E-03
          0                68           1            51    1    39      -0.2136903576E-04      48    1   28        -0.2309548762E-04      0.2274030786E-03
          0                69           1            48    1    40      -0.1912647467E-04      46    1   26        -0.2284372900E-04      0.2201144985E-03
          0                70           1            51    1    39      -0.1991858792E-04      48    1   28        -0.2145533418E-04      0.2117254537E-03
                                                   Max.-Head-Change                         Max.-Flux-Residual
  Residual-Control   Outer-Iter.   Inner-Iter.     Column Row Layer    Maximum-Head-Change  Column Row Layer    Maximum-Flux-Residual          L2-NORM 
          0                71           1            48    1    40      -0.1779682912E-04      46    1   26        -0.2124390954E-04      0.2049646228E-03
          0                72           1            51    1    39      -0.1856884992E-04      48    1   28        -0.1993286588E-04      0.1971311131E-03
          0                73           1            48    1    40      -0.1656029730E-04      46    1   26        -0.1975519592E-04      0.1908593453E-03
          0                74           1            51    1    39      -0.1731239934E-04      48    1   28        -0.1851944128E-04      0.1835443777E-03
          0                75           1            48    1    40      -0.1541021955E-04      46    1   26        -0.1836998007E-04      0.1777259190E-03
          0                76           1            51    1    39      -0.1614243052E-04      48    1   28        -0.1720708644E-04      0.1708950690E-03
          0                77           1            48    1    40      -0.1434043915E-04      46    1   26        -0.1708116133E-04      0.1654968470E-03
          0                78           1            51    1    39      -0.1505269420E-04      48    1   28        -0.1598843798E-04      0.1591180545E-03
          0                79           1            48    1    40      -0.1334525940E-04      46    1   26        -0.1588211398E-04      0.1541094560E-03
          0                80           1            51    1    39      -0.1403744117E-04      48    1   28        -0.1485669094E-04      0.1481528426E-03
                                                   Max.-Head-Change                         Max.-Flux-Residual
  Residual-Control   Outer-Iter.   Inner-Iter.     Column Row Layer    Maximum-Head-Change  Column Row Layer    Maximum-Flux-Residual          L2-NORM 
          0                81           1            48    1    40      -0.1241940625E-04      46    1   26        -0.1476665759E-04      0.1435055181E-03
          0                82           1            51    1    39      -0.1309137575E-04      48    1   28        -0.1380555301E-04      0.1379432242E-03
          0                83           1            48    1    40      -0.1155799224E-04      46    1   26        -0.1372902881E-04      0.1336309081E-03
          0                84           1            51    1    39      -0.1220961580E-04      48    1   28        -0.1282920280E-04      0.1284369457E-03
          0                85           1            48    1    40      -0.1075648500E-04      46    1   26        -0.1276385379E-04      0.1244352983E-03
          0                86           1            51    1    39      -0.1138765228E-04      48    1   28        -0.1192225147E-04      0.1195854145E-03
          0                87           1            48    1    40      -0.1001068084E-04      46    1   26        -0.1186612357E-04      0.1158718767E-03
          0                88           1            51    1    39      -0.1062131797E-04      48    1   28        -0.1107970883E-04      0.1113434320E-03
          0                89           1            48    1    40      -0.9316677463E-05      46    1   26        -0.1103116938E-04      0.1078970915E-03
          0                90           1            51    1    37      -0.9907995906E-05      48    1   28        -0.1029695181E-04      0.1036689461E-03
                                                   Max.-Head-Change                         Max.-Flux-Residual
  Residual-Control   Outer-Iter.   Inner-Iter.     Column Row Layer    Maximum-Head-Change  Column Row Layer    Maximum-Flux-Residual          L2-NORM 
          0                91           1            48    1    40      -0.8670852534E-05      46    1   26        -0.1025464076E-04      0.1004704167E-03

    ------------------------------------------------
       NWT REQUIRED           91 OUTER ITERATIONS 
       AND A TOTAL OF        122 INNER ITERATIONS.
    ------------------------------------------------

 OUTPUT CONTROL FOR STRESS PERIOD    2   TIME STEP    3
    PRINT BUDGET
    SAVE HEAD FOR ALL LAYERS
    SAVE DRAWDOWN FOR ALL LAYERS
    SAVE BUDGET
 UBDSV1 SAVING "         STORAGE" ON UNIT  40 AT TIME STEP  3, STRESS PERIOD   2
 UBDSV2 SAVING "   CONSTANT HEAD" ON UNIT  40 AT TIME STEP  3, STRESS PERIOD   2
 UBDSV1 SAVING "FLOW RIGHT FACE " ON UNIT  40 AT TIME STEP  3, STRESS PERIOD   2
 UBDSV1 SAVING "FLOW LOWER FACE " ON UNIT  40 AT TIME STEP  3, STRESS PERIOD   2
 UBDSV4 SAVING "          DRAINS" ON UNIT  40 AT TIME STEP  3, STRESS PERIOD   2
 UBDSV4 SAVING " HEAD DEP BOUNDS" ON UNIT  40 AT TIME STEP  3, STRESS PERIOD   2

 SAVING SATURATED THICKNESS AND FLOW TERMS ON UNIT  333 FOR MT3DMS
 BY THE LINK-MT3DMS PACKAGE V7 AT TIME STEP    3, STRESS PERIOD    2


 HEAD WILL BE SAVED ON UNIT    2 AT END OF TIME STEP    3, STRESS PERIOD    2

 DRAWDOWN WILL BE SAVED ON UNIT   12 AT END OF TIME STEP    3, STRESS PERIOD    2
1
  VOLUMETRIC BUDGET FOR ENTIRE MODEL AT END OF TIME STEP    3, STRESS PERIOD   2
  ------------------------------------------------------------------------------

     CUMULATIVE VOLUMES      L**3       RATES FOR THIS TIME STEP      L**3/T
     ------------------                 ------------------------

           IN:                                      IN:
           ---                                      ---
             STORAGE     =          60.3586               STORAGE     =           6.1746
       CONSTANT HEAD     =           0.0000         CONSTANT HEAD     =           0.0000
              DRAINS     =           0.0000                DRAINS     =           0.0000
     HEAD DEP BOUNDS     =         406.3779       HEAD DEP BOUNDS     =           7.4938

                TOTAL IN =         466.7364                  TOTAL IN =          13.6684

          OUT:                                     OUT:
          ----                                     ----
             STORAGE     =       1.7856E-08               STORAGE     =           0.0000
       CONSTANT HEAD     =           0.0000         CONSTANT HEAD     =           0.0000
              DRAINS     =         454.5002                DRAINS     =          13.6706
     HEAD DEP BOUNDS     =          12.2682       HEAD DEP BOUNDS     =           0.0000

               TOTAL OUT =         466.7683                 TOTAL OUT =          13.6706

                IN - OUT =      -3.1921E-02                  IN - OUT =      -2.1868E-03

     PERCENT DISCREPANCY =          -0.01         PERCENT DISCREPANCY =          -0.02






         TIME SUMMARY AT END OF TIME STEP    3 IN STRESS PERIOD    2
                    SECONDS     MINUTES      HOURS       DAYS        YEARS
                    -----------------------------------------------------------
   TIME STEP LENGTH  86400.      1440.0      24.000      1.0000     2.73785E-03
 STRESS PERIOD TIME 2.59200E+05  4320.0      72.000      3.0000     8.21355E-03
         TOTAL TIME 1.12320E+06  18720.      312.00      13.000     3.55921E-02
1
 
 SOLVING FOR HEAD 
                                                   Max.-Head-Change                         Max.-Flux-Residual
  Residual-Control   Outer-Iter.   Inner-Iter.     Column Row Layer    Maximum-Head-Change  Column Row Layer    Maximum-Flux-Residual          L2-NORM 
          0                 1          16            52    1    22      -0.7837512719E+00      30    1   20        -0.8000072014E-01      0.5723336437E+00
          0                 2          11            51    1    23      -0.1118721635E+00      67    1   27        -0.4281577880E+00      0.1732839804E+01
          0                 3           2            52    1    16       0.5004427782E-02      51    1   24        -0.2096983040E-01      0.3846453795E-01
          0                 4           1            38    1    38      -0.3069977792E-03      52    1   23         0.3551045271E-03      0.2557599779E-02
          0                 5           1            38    1    10      -0.2537684056E-03      46    1   26        -0.2327724303E-03      0.2221249311E-02
          0                 6           1            37    1    37      -0.3457849536E-03      50    1   26        -0.2226699591E-03      0.2046793063E-02
          0                 7           1            41    1    21      -0.1655117707E-03      46    1   26        -0.2115108233E-03      0.1899714657E-02
          0                 8           1            37    1    37      -0.3389011587E-03      50    1   26        -0.1691760014E-03      0.1771762008E-02
          0                 9           1            41    1    21      -0.1345770775E-03      46    1   26        -0.1853324769E-03      0.1667011517E-02
          0                10           1            37    1    37      -0.2605091960E-03      50    1   26        -0.1418869020E-03      0.1561297303E-02
                                                   Max.-Head-Change                         Max.-Flux-Residual
  Residual-Control   Outer-Iter.   Inner-Iter.     Column Row Layer    Maximum-Head-Change  Column Row Layer    Maximum-Flux-Residual          L2-NORM 
          0                11           1            36    1    40      -0.1206368426E-03      48    1   28        -0.1587822484E-03      0.1486180442E-02
          0                12           1            38    1    38      -0.1961227453E-03      50    1   26        -0.1260405102E-03      0.1406167342E-02
          0                13           1            36    1    40      -0.1147246293E-03      48    1   28        -0.1376631128E-03      0.1348233143E-02
          0                14           1            38    1    38      -0.1567623821E-03      50    1   26        -0.1129472781E-03      0.1285643054E-02
          0                15           1            41    1    33      -0.1099100124E-03      48    1   28        -0.1202184710E-03      0.1237663677E-02
          0                16           1            38    1    36      -0.1317085813E-03      44    1   28        -0.1035593565E-03      0.1185742760E-02
          0                17           1            41    1    33      -0.1042650459E-03      48    1   28        -0.1062514733E-03      0.1143878780E-02
          0                18           1            39    1    37      -0.1151811437E-03      44    1   28        -0.9473927619E-04      0.1099106799E-02
          0                19           1            42    1    34      -0.9761480376E-04      48    1   28        -0.9491133827E-04      0.1061483722E-02
          0                20           1            39    1    37      -0.1034020605E-03      44    1   28        -0.8632894537E-04      0.1021766016E-02
                                                   Max.-Head-Change                         Max.-Flux-Residual
  Residual-Control   Outer-Iter.   Inner-Iter.     Column Row Layer    Maximum-Head-Change  Column Row Layer    Maximum-Flux-Residual          L2-NORM 
          0                21           1            42    1    34      -0.9078537992E-04      48    1   28        -0.8539717751E-04      0.9875459012E-03
          0                22           1            39    1    37      -0.9408268901E-04      44    1   28        -0.7851607043E-04      0.9515507114E-03
          0                23           1            42    1    34      -0.8406976806E-04      48    1   28        -0.7717488589E-04      0.9202729304E-03
          0                24           1            39    1    37      -0.8616132610E-04      44    1   28        -0.7139396971E-04      0.8871864150E-03
          0                25           1            43    1    37      -0.7786842976E-04      48    1   28        -0.6994450283E-04      0.8584836642E-03
          0                26           1            40    1    38      -0.7922604455E-04      68    1   30        -0.6756358178E-04      0.8278174481E-03
          0                27           1            43    1    37      -0.7224605321E-04      68    1   30        -0.6740515457E-04      0.8013705679E-03
          0                28           1            40    1    38      -0.7306843515E-04      68    1   30        -0.6563611495E-04      0.7728127827E-03
          0                29           1            43    1    37      -0.6702567099E-04      68    1   30        -0.6518799535E-04      0.7483559025E-03
          0                30           1            40    1    38      -0.6747100131E-04      68    1   30        -0.6335071129E-04      0.7216890263E-03
                                                   Max.-Head-Change                         Max.-Flux-Residual
  Residual-Control   Outer-Iter.   Inner-Iter.     Column Row Layer    Maximum-Head-Change  Column Row Layer    Maximum-Flux-Residual          L2-NORM 
          0                31           1            43    1    37      -0.6218526907E-04      68    1   30        -0.6269889283E-04      0.6990050392E-03
          0                32           1            40    1    38      -0.6235358698E-04      68    1   30        -0.6082725743E-04      0.6740663889E-03
          0                33           1            43    1    37      -0.5769911073E-04      68    1   30        -0.6003393121E-04      0.6529770339E-03
          0                34           1            40    1    38      -0.5765833486E-04      68    1   30        -0.5815691937E-04      0.6296379545E-03
          0                35           1            44    1    38      -0.5358393018E-04      68    1   30        -0.5726797647E-04      0.6099947890E-03
          0                36           1            47    1    37      -0.5349278706E-04      68    1   30        -0.5540927107E-04      0.5881483716E-03
          0                37           1            44    1    38      -0.4980882448E-04      68    1   30        -0.5445902016E-04      0.5698258123E-03
          0                38           1            47    1    37      -0.4973664527E-04      68    1   30        -0.5263733441E-04      0.5493792867E-03
          0                39           1            44    1    38      -0.4630227784E-04      68    1   30        -0.5165164170E-04      0.5322694409E-03
          0                40           1            47    1    37      -0.4624200712E-04      68    1   30        -0.4988128448E-04      0.5131394072E-03
                                                   Max.-Head-Change                         Max.-Flux-Residual
  Residual-Control   Outer-Iter.   Inner-Iter.     Column Row Layer    Maximum-Head-Change  Column Row Layer    Maximum-Flux-Residual          L2-NORM 
          0                41           1            44    1    38      -0.4304622834E-04      68    1   30        -0.4887974298E-04      0.4971482681E-03
          0                42           1            47    1    37      -0.4299220362E-04      68    1   30        -0.4717124176E-04      0.4792577275E-03
          0                43           1            44    1    38      -0.4002377971E-04      68    1   30        -0.4616871169E-04      0.4643023676E-03
          0                44           1            48    1    38      -0.3999388259E-04      68    1   30        -0.4452941927E-04      0.4475789236E-03
          0                45           1            46    1    40      -0.3724335819E-04      68    1   30        -0.4353714701E-04      0.4335854136E-03
          0                46           1            48    1    38      -0.3722839828E-04      68    1   30        -0.4197179835E-04      0.4179602330E-03
          0                47           1            46    1    40      -0.3472829306E-04      68    1   30        -0.4099824307E-04      0.4048620791E-03
          0                48           1            48    1    38      -0.3465500008E-04      68    1   30        -0.3950945415E-04      0.3902693491E-03
          0                49           1            46    1    40      -0.3238412607E-04      68    1   30        -0.3856090906E-04      0.3780062989E-03
          0                50           1            48    1    38      -0.3226153382E-04      68    1   30        -0.3714961204E-04      0.3643829902E-03
                                                   Max.-Head-Change                         Max.-Flux-Residual
  Residual-Control   Outer-Iter.   Inner-Iter.     Column Row Layer    Maximum-Head-Change  Column Row Layer    Maximum-Flux-Residual          L2-NORM 
          0                51           1            46    1    40      -0.3019945707E-04      68    1   30        -0.3623067583E-04      0.3529001038E-03
          0                52           1            48    1    38      -0.3003621154E-04      68    1   30        -0.3489649575E-04      0.3401859133E-03
          0                53           1            46    1    40      -0.2816349648E-04      68    1   30        -0.3401043480E-04      0.3294328237E-03
          0                54           1            49    1    37      -0.2797305442E-04      68    1   30        -0.3275200721E-04      0.3175702017E-03
          0                55           1            47    1    39      -0.2627950775E-04      68    1   30        -0.3190103571E-04      0.3075005138E-03
          0                56           1            49    1    37      -0.2608564154E-04      68    1   30        -0.3071627144E-04      0.2964347209E-03
          0                57           1            47    1    39      -0.2454820251E-04      68    1   30        -0.2990176999E-04      0.2870055172E-03
          0                58           1            49    1    37      -0.2432568626E-04      68    1   30        -0.2878807017E-04      0.2766846682E-03
          0                59           1            47    1    39      -0.2292897839E-04      68    1   30        -0.2801075853E-04      0.2678560971E-03
          0                60           1            50    1    38      -0.2269706736E-04      68    1   30        -0.2696518619E-04      0.2582311779E-03
                                                   Max.-Head-Change                         Max.-Flux-Residual
  Residual-Control   Outer-Iter.   Inner-Iter.     Column Row Layer    Maximum-Head-Change  Column Row Layer    Maximum-Flux-Residual          L2-NORM 
          0                61           1            47    1    39      -0.2141464652E-04      68    1   30        -0.2622525965E-04      0.2499661108E-03
          0                62           1            50    1    38      -0.2117899293E-04      68    1   30        -0.2524467402E-04      0.2409909566E-03
          0                63           1            47    1    39      -0.1999850032E-04      68    1   30        -0.2454191336E-04      0.2332547009E-03
          0                64           1            50    1    38      -0.1976165081E-04      68    1   30        -0.2362307184E-04      0.2248859415E-03
          0                65           1            47    1    39      -0.1867428035E-04      68    1   30        -0.2295693182E-04      0.2176460025E-03
          0                66           1            50    1    38      -0.1843846755E-04      68    1   30        -0.2209656715E-04      0.2098429761E-03
          0                67           1            47    1    39      -0.1743613807E-04      68    1   30        -0.2146624867E-04      0.2030688572E-03
          0                68           1            50    1    38      -0.1720326806E-04      68    1   30        -0.2066112432E-04      0.1957935037E-03
          0                69           1            47    1    39      -0.1627860569E-04      68    1   30        -0.2006563426E-04      0.1894565410E-03
          0                70           1            50    1    38      -0.1605026343E-04      68    1   30        -0.1931258490E-04      0.1826732799E-03
                                                   Max.-Head-Change                         Max.-Flux-Residual
  Residual-Control   Outer-Iter.   Inner-Iter.     Column Row Layer    Maximum-Head-Change  Column Row Layer    Maximum-Flux-Residual          L2-NORM 
          0                71           1            47    1    39      -0.1519656506E-04      68    1   30        -0.1875078436E-04      0.1767465019E-03
          0                72           1            50    1    38      -0.1497403325E-04      68    1   30        -0.1804674309E-04      0.1704221008E-03
          0                73           1            47    1    39      -0.1418522254E-04      68    1   30        -0.1751738806E-04      0.1648801114E-03
          0                74           1            50    1    38      -0.1396950756E-04      68    1   30        -0.1685940524E-04      0.1589835519E-03
          0                75           1            47    1    39      -0.1324008380E-04      68    1   30        -0.1636117936E-04      0.1538024278E-03
          0                76           1            50    1    38      -0.1303194825E-04      68    1   30        -0.1574643373E-04      0.1483047725E-03
          0                77           1            47    1    39      -0.1235693313E-04      68    1   30        -0.1527797649E-04      0.1434619756E-03
          0                78           1            50    1    38      -0.1215692627E-04      68    1   30        -0.1470378056E-04      0.1383362356E-03
          0                79           1            48    1    40      -0.1153256349E-04      68    1   30        -0.1426370977E-04      0.1338105345E-03
          0                80           1            50    1    38      -0.1134030358E-04      68    1   30        -0.1372751314E-04      0.1290315436E-03
                                                   Max.-Head-Change                         Max.-Flux-Residual
  Residual-Control   Outer-Iter.   Inner-Iter.     Column Row Layer    Maximum-Head-Change  Column Row Layer    Maximum-Flux-Residual          L2-NORM 
          0                81           1            48    1    40      -0.1076270552E-04      68    1   30        -0.1331444231E-04      0.1248029426E-03
          0                82           1            51    1    39      -0.1057910595E-04      68    1   30        -0.1281383136E-04      0.1203472385E-03
          0                83           1            47    1    37      -0.1004455740E-04      68    1   30        -0.1242638525E-04      0.1163969120E-03
          0                84           1            51    1    39      -0.9868986689E-05      68    1   30        -0.1195908050E-04      0.1122426207E-03
          0                85           1            47    1    37      -0.9374165224E-05      68    1   30        -0.1159590606E-04      0.1085528531E-03
          0                86           1            51    1    39      -0.9206164943E-05      68    1   30        -0.1115975894E-04      0.1046795835E-03
          0                87           1            47    1    37      -0.8747800742E-05      68    1   30        -0.1081953501E-04      0.1012337112E-03

    ------------------------------------------------
       NWT REQUIRED           87 OUTER ITERATIONS 
       AND A TOTAL OF        113 INNER ITERATIONS.
    ------------------------------------------------

 OUTPUT CONTROL FOR STRESS PERIOD    2   TIME STEP    4
    PRINT BUDGET
    SAVE HEAD FOR ALL LAYERS
    SAVE DRAWDOWN FOR ALL LAYERS
    SAVE BUDGET
 UBDSV1 SAVING "         STORAGE" ON UNIT  40 AT TIME STEP  4, STRESS PERIOD   2
 UBDSV2 SAVING "   CONSTANT HEAD" ON UNIT  40 AT TIME STEP  4, STRESS PERIOD   2
 UBDSV1 SAVING "FLOW RIGHT FACE " ON UNIT  40 AT TIME STEP  4, STRESS PERIOD   2
 UBDSV1 SAVING "FLOW LOWER FACE " ON UNIT  40 AT TIME STEP  4, STRESS PERIOD   2
 UBDSV4 SAVING "          DRAINS" ON UNIT  40 AT TIME STEP  4, STRESS PERIOD   2
 UBDSV4 SAVING " HEAD DEP BOUNDS" ON UNIT  40 AT TIME STEP  4, STRESS PERIOD   2

 SAVING SATURATED THICKNESS AND FLOW TERMS ON UNIT  333 FOR MT3DMS
 BY THE LINK-MT3DMS PACKAGE V7 AT TIME STEP    4, STRESS PERIOD    2


 HEAD WILL BE SAVED ON UNIT    2 AT END OF TIME STEP    4, STRESS PERIOD    2

 DRAWDOWN WILL BE SAVED ON UNIT   12 AT END OF TIME STEP    4, STRESS PERIOD    2
1
  VOLUMETRIC BUDGET FOR ENTIRE MODEL AT END OF TIME STEP    4, STRESS PERIOD   2
  ------------------------------------------------------------------------------

     CUMULATIVE VOLUMES      L**3       RATES FOR THIS TIME STEP      L**3/T
     ------------------                 ------------------------

           IN:                                      IN:
           ---                                      ---
             STORAGE     =          63.4346               STORAGE     =           3.0760
       CONSTANT HEAD     =           0.0000         CONSTANT HEAD     =           0.0000
              DRAINS     =           0.0000                DRAINS     =           0.0000
     HEAD DEP BOUNDS     =         415.6072       HEAD DEP BOUNDS     =           9.2293

                TOTAL IN =         479.0417                  TOTAL IN =          12.3053

          OUT:                                     OUT:
          ----                                     ----
             STORAGE     =       1.7856E-08               STORAGE     =           0.0000
       CONSTANT HEAD     =           0.0000         CONSTANT HEAD     =           0.0000
              DRAINS     =         466.8077                DRAINS     =          12.3075
     HEAD DEP BOUNDS     =          12.2682       HEAD DEP BOUNDS     =           0.0000

               TOTAL OUT =         479.0758                 TOTAL OUT =          12.3075

                IN - OUT =      -3.4088E-02                  IN - OUT =      -2.1467E-03

     PERCENT DISCREPANCY =          -0.01         PERCENT DISCREPANCY =          -0.02






         TIME SUMMARY AT END OF TIME STEP    4 IN STRESS PERIOD    2
                    SECONDS     MINUTES      HOURS       DAYS        YEARS
                    -----------------------------------------------------------
   TIME STEP LENGTH  86400.      1440.0      24.000      1.0000     2.73785E-03
 STRESS PERIOD TIME 3.45600E+05  5760.0      96.000      4.0000     1.09514E-02
         TOTAL TIME 1.20960E+06  20160.      336.00      14.000     3.83299E-02
1
 
 SOLVING FOR HEAD 
                                                   Max.-Head-Change                         Max.-Flux-Residual
  Residual-Control   Outer-Iter.   Inner-Iter.     Column Row Layer    Maximum-Head-Change  Column Row Layer    Maximum-Flux-Residual          L2-NORM 
          0                 1          16            59    1    25      -0.3860814621E+00      51    1   24        -0.5265037289E-01      0.3241644047E+00
          0                 2           6            68    1    27      -0.7109466156E-01      76    1   30         0.2274955983E+00      0.8842139553E+00
          0                 3           6            58    1    40      -0.1222030667E-01      69    1   27         0.6051550814E-02      0.1517435880E-01
          0                 4           1            72    1    29      -0.6252531640E-03      72    1   29        -0.1128593403E-01      0.2633560408E-01
          0                 5           1            47    1    14      -0.7253610529E-04      72    1   29        -0.6670772935E-03      0.1822390562E-02
          0                 6           1            34    1    40      -0.2308630770E-03      45    1   24        -0.7013113216E-04      0.7183774941E-03
          0                 7           1            32    1    38      -0.5448303324E-04      38    1   23        -0.1604822612E-03      0.6569576074E-03
          0                 8           1            31    1    39      -0.7133821454E-04      45    1   27        -0.5281976439E-04      0.5352603971E-03
          0                 9           1            33    1    37      -0.4982961643E-04      38    1   23        -0.5949425997E-04      0.5069675848E-03
          0                10           1            32    1    40      -0.5370787923E-04      45    1   27        -0.4695106730E-04      0.4708720395E-03
                                                   Max.-Head-Change                         Max.-Flux-Residual
  Residual-Control   Outer-Iter.   Inner-Iter.     Column Row Layer    Maximum-Head-Change  Column Row Layer    Maximum-Flux-Residual          L2-NORM 
          0                11           1            33    1    37      -0.4680626834E-04      49    1   27        -0.4705715929E-04      0.4465230380E-03
          0                12           1            32    1    40      -0.4342333291E-04      45    1   27        -0.4147174658E-04      0.4217168213E-03
          0                13           1            34    1    38      -0.4353187133E-04      49    1   27        -0.4213182771E-04      0.3989027584E-03
          0                14           1            32    1    40      -0.3710451250E-04      38    1   23        -0.3691912022E-04      0.3808172645E-03
          0                15           1            35    1    39      -0.3962750914E-04      49    1   27        -0.3837323229E-04      0.3598700811E-03
          0                16           1            32    1    40      -0.3264826326E-04      51    1   25        -0.3402589449E-04      0.3459221224E-03
          0                17           1            35    1    39      -0.3551081442E-04      49    1   27        -0.3529155359E-04      0.3271869964E-03
          0                18           1            32    1    40      -0.2928843499E-04      51    1   25        -0.3185066967E-04      0.3158635596E-03
          0                19           1            35    1    37      -0.3157713975E-04      49    1   27        -0.3263839793E-04      0.2994977532E-03
          0                20           1            33    1    39      -0.2656710364E-04      51    1   25        -0.2959180877E-04      0.2898390032E-03
                                                   Max.-Head-Change                         Max.-Flux-Residual
  Residual-Control   Outer-Iter.   Inner-Iter.     Column Row Layer    Maximum-Head-Change  Column Row Layer    Maximum-Flux-Residual          L2-NORM 
          0                21           1            36    1    38      -0.2817955904E-04      49    1   27        -0.3026819118E-04      0.2757081251E-03
          0                22           1            34    1    40      -0.2426242228E-04      51    1   25        -0.2742585534E-04      0.2671666525E-03
          0                23           1            36    1    38      -0.2527861991E-04      49    1   27        -0.2810503162E-04      0.2549439013E-03
          0                24           1            39    1    37      -0.2226830926E-04      51    1   25        -0.2542851976E-04      0.2472291526E-03
          0                25           1            36    1    38      -0.2279838717E-04      49    1   27        -0.2611334125E-04      0.2365455252E-03
          0                26           1            39    1    31      -0.2050349354E-04      51    1   25        -0.2360052510E-04      0.2294904790E-03
          0                27           1            37    1    39      -0.2068425620E-04      49    1   27        -0.2427375628E-04      0.2200389105E-03
          0                28           1            40    1    34      -0.1891818513E-04      51    1   25        -0.2192462706E-04      0.2135318088E-03
          0                29           1            38    1    40      -0.1888412815E-04      49    1   27        -0.2257236449E-04      0.2050776949E-03
          0                30           1            40    1    34      -0.1749833890E-04      51    1   25        -0.2038300248E-04      0.1990366965E-03
                                                   Max.-Head-Change                         Max.-Flux-Residual
  Residual-Control   Outer-Iter.   Inner-Iter.     Column Row Layer    Maximum-Head-Change  Column Row Layer    Maximum-Flux-Residual          L2-NORM 
          0                31           1            38    1    40      -0.1731187148E-04      49    1   27        -0.2099730401E-04      0.1914037931E-03
          0                32           1            40    1    34      -0.1619111425E-04      51    1   25        -0.1896062817E-04      0.1857672743E-03
          0                33           1            38    1    40      -0.1590697936E-04      49    1   27        -0.1953797826E-04      0.1788224552E-03
          0                34           1            41    1    35      -0.1500305884E-04      51    1   25        -0.1764515129E-04      0.1735435797E-03
          0                35           1            39    1    39      -0.1466465520E-04      49    1   27        -0.1818484083E-04      0.1671851461E-03
          0                36           1            41    1    35      -0.1393466231E-04      51    1   25        -0.1642629415E-04      0.1622279501E-03
          0                37           1            39    1    39      -0.1356866208E-04      49    1   27        -0.1692927478E-04      0.1563771774E-03
          0                38           1            41    1    35      -0.1294664676E-04      51    1   25        -0.1529535517E-04      0.1517136092E-03
          0                39           1            40    1    40      -0.1256889166E-04      49    1   27        -0.1576349135E-04      0.1463086514E-03
          0                40           1            42    1    38      -0.1204220471E-04      49    1   27        -0.1426842317E-04      0.1419163544E-03
                                                   Max.-Head-Change                         Max.-Flux-Residual
  Residual-Control   Outer-Iter.   Inner-Iter.     Column Row Layer    Maximum-Head-Change  Column Row Layer    Maximum-Flux-Residual          L2-NORM 
          0                41           1            45    1    35      -0.1170445113E-04      49    1   27        -0.1468044215E-04      0.1369078399E-03
          0                42           1            43    1    39      -0.1121583926E-04      49    1   27        -0.1335375498E-04      0.1327685122E-03
          0                43           1            45    1    35      -0.1091027748E-04      49    1   27        -0.1367373758E-04      0.1281163472E-03
          0                44           1            43    1    39      -0.1045916443E-04      49    1   27        -0.1249251656E-04      0.1242145551E-03
          0                45           1            46    1    38      -0.1017670721E-04      49    1   27        -0.1273757317E-04      0.1198855978E-03
          0                46           1            43    1    39      -0.9754237258E-05      49    1   27        -0.1168251038E-04      0.1162079277E-03
          0                47           1            46    1    38      -0.9501951492E-05      49    1   27        -0.1186666472E-04      0.1121742910E-03
          0                48           1            43    1    39      -0.9097504812E-05      49    1   27        -0.1092144032E-04      0.1087087571E-03
          0                49           1            46    1    38      -0.8872368664E-05      49    1   27        -0.1105619106E-04      0.1049465669E-03
          0                50           1            44    1    40      -0.8488710257E-05      49    1   27        -0.1020696439E-04      0.1016822015E-03

    ------------------------------------------------
       NWT REQUIRED           50 OUTER ITERATIONS 
       AND A TOTAL OF         75 INNER ITERATIONS.
    ------------------------------------------------

 OUTPUT CONTROL FOR STRESS PERIOD    2   TIME STEP    5
    PRINT BUDGET
    SAVE HEAD FOR ALL LAYERS
    SAVE DRAWDOWN FOR ALL LAYERS
    SAVE BUDGET
 UBDSV1 SAVING "         STORAGE" ON UNIT  40 AT TIME STEP  5, STRESS PERIOD   2
 UBDSV2 SAVING "   CONSTANT HEAD" ON UNIT  40 AT TIME STEP  5, STRESS PERIOD   2
 UBDSV1 SAVING "FLOW RIGHT FACE " ON UNIT  40 AT TIME STEP  5, STRESS PERIOD   2
 UBDSV1 SAVING "FLOW LOWER FACE " ON UNIT  40 AT TIME STEP  5, STRESS PERIOD   2
 UBDSV4 SAVING "          DRAINS" ON UNIT  40 AT TIME STEP  5, STRESS PERIOD   2
 UBDSV4 SAVING " HEAD DEP BOUNDS" ON UNIT  40 AT TIME STEP  5, STRESS PERIOD   2

 SAVING SATURATED THICKNESS AND FLOW TERMS ON UNIT  333 FOR MT3DMS
 BY THE LINK-MT3DMS PACKAGE V7 AT TIME STEP    5, STRESS PERIOD    2


 HEAD WILL BE SAVED ON UNIT    2 AT END OF TIME STEP    5, STRESS PERIOD    2

 DRAWDOWN WILL BE SAVED ON UNIT   12 AT END OF TIME STEP    5, STRESS PERIOD    2
1
  VOLUMETRIC BUDGET FOR ENTIRE MODEL AT END OF TIME STEP    5, STRESS PERIOD   2
  ------------------------------------------------------------------------------

     CUMULATIVE VOLUMES      L**3       RATES FOR THIS TIME STEP      L**3/T
     ------------------                 ------------------------

           IN:                                      IN:
           ---                                      ---
             STORAGE     =          65.0064               STORAGE     =           1.5719
       CONSTANT HEAD     =           0.0000         CONSTANT HEAD     =           0.0000
              DRAINS     =           0.0000                DRAINS     =           0.0000
     HEAD DEP BOUNDS     =         425.5920       HEAD DEP BOUNDS     =           9.9848

                TOTAL IN =         490.5984                  TOTAL IN =          11.5567

          OUT:                                     OUT:
          ----                                     ----
             STORAGE     =       1.7856E-08               STORAGE     =           0.0000
       CONSTANT HEAD     =           0.0000         CONSTANT HEAD     =           0.0000
              DRAINS     =         478.3664                DRAINS     =          11.5588
     HEAD DEP BOUNDS     =          12.2682       HEAD DEP BOUNDS     =           0.0000

               TOTAL OUT =         490.6346                 TOTAL OUT =          11.5588

                IN - OUT =      -3.6194E-02                  IN - OUT =      -2.1000E-03

     PERCENT DISCREPANCY =          -0.01         PERCENT DISCREPANCY =          -0.02






         TIME SUMMARY AT END OF TIME STEP    5 IN STRESS PERIOD    2
                    SECONDS     MINUTES      HOURS       DAYS        YEARS
                    -----------------------------------------------------------
   TIME STEP LENGTH  86400.      1440.0      24.000      1.0000     2.73785E-03
 STRESS PERIOD TIME 4.32000E+05  7200.0      120.00      5.0000     1.36893E-02
         TOTAL TIME 1.29600E+06  21600.      360.00      15.000     4.10678E-02
1
 
 SOLVING FOR HEAD 
                                                   Max.-Head-Change                         Max.-Flux-Residual
  Residual-Control   Outer-Iter.   Inner-Iter.     Column Row Layer    Maximum-Head-Change  Column Row Layer    Maximum-Flux-Residual          L2-NORM 
          0                 1          16            57    1    25      -0.2040770480E+00      55    1   25        -0.2724062623E-01      0.1751033829E+00
          0                 2           2            80    1    30       0.4312952175E-01      79    1   30        -0.1312518310E+00      0.3836136174E+00
          0                 3           2            71    1    28      -0.1496406665E-02      80    1   30         0.3645542554E-02      0.8733052361E-02
          0                 4           1            63    1    39      -0.2054420580E-03      66    1   28        -0.5252825943E-03      0.3315187873E-02
          0                 5           1            60    1    40      -0.3912279893E-03      61    1   29        -0.2387518473E-03      0.2746921584E-02
          0                 6           1            56    1    40      -0.2368114474E-03      61    1   29        -0.2519120106E-03      0.2716765187E-02
          0                 7           1            54    1    40      -0.2999586796E-03      61    1   29        -0.1978092798E-03      0.2537318888E-02
          0                 8           1            56    1    40      -0.2044529277E-03      61    1   29        -0.2278466579E-03      0.2488606433E-02
          0                 9           1            56    1    25      -0.2579991736E-03      61    1   29        -0.1808290256E-03      0.2344069576E-02
          0                10           1            56    1    24      -0.1923010049E-03      61    1   29        -0.2030373350E-03      0.2292319120E-02
                                                   Max.-Head-Change                         Max.-Flux-Residual
  Residual-Control   Outer-Iter.   Inner-Iter.     Column Row Layer    Maximum-Head-Change  Column Row Layer    Maximum-Flux-Residual          L2-NORM 
          0                11           1            56    1    25      -0.2288049322E-03      61    1   29        -0.1679969215E-03      0.2176667026E-02
          0                12           1            50    1    40      -0.1814865769E-03      61    1   29        -0.1835296550E-03      0.2119379664E-02
          0                13           1            56    1    25      -0.2051138146E-03      61    1   29        -0.1568194148E-03      0.2022962736E-02
          0                14           1            50    1    40      -0.1710343361E-03      61    1   29        -0.1675694671E-03      0.1963664690E-02
          0                15           1            56    1    25      -0.1854838698E-03      61    1   29        -0.1465845804E-03      0.1881388830E-02
          0                16           1            50    1    40      -0.1608531125E-03      61    1   29        -0.1540006372E-03      0.1822344629E-02
          0                17           1            56    1    25      -0.1689412500E-03      61    1   29        -0.1370213647E-03      0.1750750814E-02
          0                18           1            50    1    40      -0.1510647966E-03      61    1   29        -0.1421346002E-03      0.1693252347E-02
          0                19           1            54    1    38      -0.1547959634E-03      61    1   29        -0.1280324559E-03      0.1629917785E-02
          0                20           1            50    1    40      -0.1417016429E-03      61    1   29        -0.1315419641E-03      0.1574680847E-02
                                                   Max.-Head-Change                         Max.-Flux-Residual
  Residual-Control   Outer-Iter.   Inner-Iter.     Column Row Layer    Maximum-Head-Change  Column Row Layer    Maximum-Flux-Residual          L2-NORM 
          0                21           1            54    1    38      -0.1426456385E-03      61    1   29        -0.1195827098E-03      0.1517921764E-02
          0                22           1            50    1    40      -0.1327810617E-03      61    1   29        -0.1219505308E-03      0.1465319108E-02
          0                23           1            54    1    38      -0.1318359501E-03      61    1   29        -0.1116518197E-03      0.1413957087E-02
          0                24           1            51    1    39      -0.1244747324E-03      61    1   29        -0.1131843971E-03      0.1364152985E-02
          0                25           1            54    1    38      -0.1221046476E-03      61    1   29        -0.1042190307E-03      0.1317342528E-02
          0                26           1            51    1    39      -0.1166265434E-03      61    1   29        -0.1051252193E-03      0.1270374582E-02
          0                27           1            54    1    38      -0.1132677102E-03      61    1   29        -0.9726065529E-04      0.1227487986E-02
          0                28           1            51    1    39      -0.1092144582E-03      61    1   29        -0.9768858358E-04      0.1183317881E-02
          0                29           1            54    1    38      -0.1051916786E-03      61    1   29        -0.9075118577E-04      0.1143872211E-02
          0                30           1            51    1    39      -0.1022261121E-03      61    1   29        -0.9081027918E-04      0.1102417040E-02
                                                   Max.-Head-Change                         Max.-Flux-Residual
  Residual-Control   Outer-Iter.   Inner-Iter.     Column Row Layer    Maximum-Head-Change  Column Row Layer    Maximum-Flux-Residual          L2-NORM 
          0                31           1            54    1    38      -0.9777624406E-04      61    1   29        -0.8466471134E-04      0.1066028393E-02
          0                32           1            51    1    39      -0.9564649024E-04      61    1   29        -0.8443856991E-04      0.1027179879E-02
          0                33           1            54    1    38      -0.9094341291E-04      61    1   29        -0.7897585806E-04      0.9935344411E-03
          0                34           1            51    1    39      -0.8945884981E-04      61    1   29        -0.7852988483E-04      0.9571707382E-03
          0                35           1            54    1    38      -0.8463068304E-04      61    1   29        -0.7366026605E-04      0.9260060118E-03
          0                36           1            51    1    39      -0.8364547912E-04      61    1   29        -0.7304638615E-04      0.8919990208E-03
          0                37           1            54    1    38      -0.7878664993E-04      61    1   29        -0.6869477791E-04      0.8630912622E-03
          0                38           1            51    1    39      -0.7818825081E-04      61    1   29        -0.6795454726E-04      0.8313112226E-03
          0                39           1            54    1    38      -0.7336809159E-04      61    1   29        -0.6405747774E-04      0.8044667616E-03
          0                40           1            51    1    39      -0.7306900268E-04      61    1   29        -0.6322427326E-04      0.7747851716E-03
                                                   Max.-Head-Change                         Max.-Flux-Residual
  Residual-Control   Outer-Iter.   Inner-Iter.     Column Row Layer    Maximum-Head-Change  Column Row Layer    Maximum-Flux-Residual          L2-NORM 
          0                41           1            55    1    39      -0.6836104877E-04      61    1   29        -0.5972766607E-04      0.7498342289E-03
          0                42           1            51    1    39      -0.6826979655E-04      61    1   29        -0.5882831876E-04      0.7221257128E-03
          0                43           1            55    1    39      -0.6371020416E-04      61    1   29        -0.5568581163E-04      0.6989178757E-03
          0                44           1            51    1    39      -0.6377309220E-04      61    1   29        -0.5474187340E-04      0.6730613691E-03
          0                45           1            55    1    39      -0.5938262975E-04      61    1   29        -0.5191349986E-04      0.6514622067E-03
          0                46           1            51    1    39      -0.5956186776E-04      61    1   29        -0.5094224839E-04      0.6273416878E-03
          0                47           1            55    1    39      -0.5535359693E-04      61    1   29        -0.4839338168E-04      0.6072301667E-03
          0                48           1            51    1    39      -0.5561969856E-04      61    1   29        -0.4740862842E-04      0.5847350755E-03
          0                49           1            55    1    39      -0.5160090720E-04      61    1   29        -0.4510912558E-04      0.5660015516E-03
          0                50           1            51    1    39      -0.5193081049E-04      61    1   29        -0.4412186860E-04      0.5450269952E-03
                                                   Max.-Head-Change                         Max.-Flux-Residual
  Residual-Control   Outer-Iter.   Inner-Iter.     Column Row Layer    Maximum-Head-Change  Column Row Layer    Maximum-Flux-Residual          L2-NORM 
          0                51           1            55    1    39      -0.4810447530E-04      61    1   29        -0.4204537197E-04      0.5275716306E-03
          0                52           1            51    1    39      -0.4848011173E-04      61    1   29        -0.4106432355E-04      0.5080184331E-03
          0                53           1            55    1    39      -0.4484600933E-04      61    1   29        -0.3918768799E-04      0.4917499285E-03
          0                54           1            51    1    39      -0.4525321041E-04      61    1   29        -0.3821970256E-04      0.4735245770E-03
          0                55           1            55    1    39      -0.4180876476E-04      61    1   29        -0.3652252319E-04      0.4583591428E-03
          0                56           1            51    1    39      -0.4223641848E-04      61    1   29        -0.3557294482E-04      0.4413736565E-03
          0                57           1            55    1    39      -0.3897734897E-04      61    1   29        -0.3403716643E-04      0.4272341676E-03
          0                58           1            51    1    39      -0.3941674823E-04      61    1   29        -0.3311010926E-04      0.4114059182E-03
          0                59           1            55    1    39      -0.3633756515E-04      61    1   29        -0.3171970276E-04      0.3982212092E-03
          0                60           1            51    1    39      -0.3678190093E-04      61    1   29        -0.3081827892E-04      0.3834727062E-03
                                                   Max.-Head-Change                         Max.-Flux-Residual
  Residual-Control   Outer-Iter.   Inner-Iter.     Column Row Layer    Maximum-Head-Change  Column Row Layer    Maximum-Flux-Residual          L2-NORM 
          0                61           1            54    1    36      -0.3388685281E-04      61    1   29        -0.2955897138E-04      0.3711769776E-03
          0                62           1            51    1    39      -0.3432025225E-04      61    1   29        -0.2868547638E-04      0.3574356350E-03
          0                63           1            54    1    36      -0.3160283562E-04      61    1   29        -0.2754452350E-04      0.3459679477E-03
          0                64           1            51    1    39      -0.3202083058E-04      61    1   29        -0.2670058781E-04      0.3331658380E-03
          0                65           1            54    1    36      -0.2947222577E-04      61    1   29        -0.2566658267E-04      0.3224696756E-03
          0                66           1            51    1    39      -0.2987329420E-04      61    1   29        -0.2485329458E-04      0.3105432810E-03
          0                67           1            54    1    36      -0.2748467703E-04      61    1   29        -0.2391600587E-04      0.3005661715E-03
          0                68           1            51    1    39      -0.2786790618E-04      61    1   29        -0.2313401195E-04      0.2894561355E-03
          0                69           1            54    1    36      -0.2563056815E-04      61    1   29        -0.2228424570E-04      0.2801493151E-03
          0                70           1            51    1    39      -0.2599550892E-04      61    1   29        -0.2153383399E-04      0.2698002004E-03
                                                   Max.-Head-Change                         Max.-Flux-Residual
  Residual-Control   Outer-Iter.   Inner-Iter.     Column Row Layer    Maximum-Head-Change  Column Row Layer    Maximum-Flux-Residual          L2-NORM 
          0                71           1            54    1    36      -0.2390094472E-04      61    1   29        -0.2076331455E-04      0.2611183182E-03
          0                72           1            51    1    39      -0.2424749716E-04      61    1   29        -0.2004448244E-04      0.2514783694E-03
          0                73           1            54    1    36      -0.2228746597E-04      61    1   29        -0.1934575023E-04      0.2433792223E-03
          0                74           1            51    1    39      -0.2261579066E-04      61    1   29        -0.1865826069E-04      0.2344001392E-03
          0                75           1            54    1    36      -0.2078236000E-04      61    1   29        -0.1802458338E-04      0.2268444344E-03
          0                76           1            51    1    39      -0.2109280776E-04      61    1   29        -0.1736801123E-04      0.2184811552E-03
          0                77           1            54    1    36      -0.1937837869E-04      61    1   29        -0.1679330657E-04      0.2114322932E-03
          0                78           1            51    1    39      -0.1967143912E-04      61    1   29        -0.1616707695E-04      0.2036427871E-03
          0                79           1            54    1    36      -0.1806876289E-04      61    1   29        -0.1564584484E-04      0.1970666675E-03
          0                80           1            51    1    39      -0.1834502066E-04      61    1   29        -0.1504926522E-04      0.1898117395E-03
                                                   Max.-Head-Change                         Max.-Flux-Residual
  Residual-Control   Outer-Iter.   Inner-Iter.     Column Row Layer    Maximum-Head-Change  Column Row Layer    Maximum-Flux-Residual          L2-NORM 
          0                81           1            54    1    36      -0.1684720660E-04      61    1   29        -0.1457652812E-04      0.1836765809E-03
          0                82           1            51    1    39      -0.1710730939E-04      61    1   29        -0.1400881472E-04      0.1769196863E-03
          0                83           1            54    1    36      -0.1570782483E-04      61    1   29        -0.1358006502E-04      0.1711958625E-03
          0                84           1            51    1    39      -0.1595246024E-04      61    1   29        -0.1304036500E-04      0.1649029332E-03
          0                85           1            54    1    36      -0.1464512461E-04      61    1   29        -0.1265151833E-04      0.1595628222E-03
          0                86           1            51    1    39      -0.1487500192E-04      61    1   29        -0.1213892811E-04      0.1537021025E-03
          0                87           1            54    1    36      -0.1365397909E-04      61    1   29        -0.1178628217E-04      0.1487199476E-03
          0                88           1            51    1    37      -0.1387134480E-04      61    1   29        -0.1129986255E-04      0.1432618396E-03
          0                89           1            54    1    36      -0.1272960355E-04      61    1   29        -0.1098005984E-04      0.1386136213E-03
          0                90           1            51    1    37      -0.1293716603E-04      61    1   29        -0.1051884897E-04      0.1335305417E-03
                                                   Max.-Head-Change                         Max.-Flux-Residual
  Residual-Control   Outer-Iter.   Inner-Iter.     Column Row Layer    Maximum-Head-Change  Column Row Layer    Maximum-Flux-Residual          L2-NORM 
          0                91           1            54    1    36      -0.1186752879E-04      61    1   29        -0.1022884386E-04      0.1291938570E-03
          0                92           1            51    1    37      -0.1206540502E-04      61    1   29        -0.9791867399E-05      0.1244601022E-03
          0                93           1            54    1    36      -0.1106358450E-04      61    1   29        -0.9528896641E-05      0.1204140560E-03
          0                94           1            51    1    37      -0.1125194228E-04      61    1   29        -0.9115176852E-05      0.1160056739E-03
          0                95           1            54    1    36      -0.1031387708E-04      61    1   29        -0.8876732593E-05      0.1122307758E-03
          0                96           1            51    1    37      -0.1049292546E-04      61    1   29        -0.8485295581E-05      0.1081254499E-03
          0                97           1            54    1    36      -0.9614770876E-05      61    1   29        -0.8269101500E-05      0.1046035185E-03
          0                98           1            51    1    37      -0.9784751748E-05      61    1   29        -0.7898983071E-05      0.1007804556E-03

    ------------------------------------------------
       NWT REQUIRED           98 OUTER ITERATIONS 
       AND A TOTAL OF        115 INNER ITERATIONS.
    ------------------------------------------------

 OUTPUT CONTROL FOR STRESS PERIOD    2   TIME STEP    6
    PRINT BUDGET
    SAVE HEAD FOR ALL LAYERS
    SAVE DRAWDOWN FOR ALL LAYERS
    SAVE BUDGET
 UBDSV1 SAVING "         STORAGE" ON UNIT  40 AT TIME STEP  6, STRESS PERIOD   2
 UBDSV2 SAVING "   CONSTANT HEAD" ON UNIT  40 AT TIME STEP  6, STRESS PERIOD   2
 UBDSV1 SAVING "FLOW RIGHT FACE " ON UNIT  40 AT TIME STEP  6, STRESS PERIOD   2
 UBDSV1 SAVING "FLOW LOWER FACE " ON UNIT  40 AT TIME STEP  6, STRESS PERIOD   2
 UBDSV4 SAVING "          DRAINS" ON UNIT  40 AT TIME STEP  6, STRESS PERIOD   2
 UBDSV4 SAVING " HEAD DEP BOUNDS" ON UNIT  40 AT TIME STEP  6, STRESS PERIOD   2

 SAVING SATURATED THICKNESS AND FLOW TERMS ON UNIT  333 FOR MT3DMS
 BY THE LINK-MT3DMS PACKAGE V7 AT TIME STEP    6, STRESS PERIOD    2


 HEAD WILL BE SAVED ON UNIT    2 AT END OF TIME STEP    6, STRESS PERIOD    2

 DRAWDOWN WILL BE SAVED ON UNIT   12 AT END OF TIME STEP    6, STRESS PERIOD    2
1
  VOLUMETRIC BUDGET FOR ENTIRE MODEL AT END OF TIME STEP    6, STRESS PERIOD   2
  ------------------------------------------------------------------------------

     CUMULATIVE VOLUMES      L**3       RATES FOR THIS TIME STEP      L**3/T
     ------------------                 ------------------------

           IN:                                      IN:
           ---                                      ---
             STORAGE     =          65.8281               STORAGE     =           0.8217
       CONSTANT HEAD     =           0.0000         CONSTANT HEAD     =           0.0000
              DRAINS     =           0.0000                DRAINS     =           0.0000
     HEAD DEP BOUNDS     =         435.9324       HEAD DEP BOUNDS     =          10.3404

                TOTAL IN =         501.7605                  TOTAL IN =          11.1621

          OUT:                                     OUT:
          ----                                     ----
             STORAGE     =       1.7856E-08               STORAGE     =           0.0000
       CONSTANT HEAD     =           0.0000         CONSTANT HEAD     =           0.0000
              DRAINS     =         489.5307                DRAINS     =          11.1643
     HEAD DEP BOUNDS     =          12.2682       HEAD DEP BOUNDS     =           0.0000

               TOTAL OUT =         501.7989                 TOTAL OUT =          11.1643

                IN - OUT =      -3.8361E-02                  IN - OUT =      -2.1715E-03

     PERCENT DISCREPANCY =          -0.01         PERCENT DISCREPANCY =          -0.02






         TIME SUMMARY AT END OF TIME STEP    6 IN STRESS PERIOD    2
                    SECONDS     MINUTES      HOURS       DAYS        YEARS
                    -----------------------------------------------------------
   TIME STEP LENGTH  86400.      1440.0      24.000      1.0000     2.73785E-03
 STRESS PERIOD TIME 5.18400E+05  8640.0      144.00      6.0000     1.64271E-02
         TOTAL TIME 1.38240E+06  23040.      384.00      16.000     4.38056E-02
1
 
 SOLVING FOR HEAD 
                                                   Max.-Head-Change                         Max.-Flux-Residual
  Residual-Control   Outer-Iter.   Inner-Iter.     Column Row Layer    Maximum-Head-Change  Column Row Layer    Maximum-Flux-Residual          L2-NORM 
          0                 1          11            61    1    25      -0.1050299350E+00      57    1   26        -0.1427166237E-01      0.9332296875E-01
          0                 2           2            56    1    21      -0.2616605004E-02      55    1   26         0.2248232171E-01      0.5146164481E-01
          0                 3           1            30    1     6      -0.5089625147E-03      55    1   26         0.4488455162E-03      0.3411040912E-02
          0                 4           1            30    1    20      -0.2947145002E-03      43    1   25        -0.3015527243E-03      0.2989577461E-02
          0                 5           1            30    1     5      -0.4411555614E-03      38    1   26        -0.2522452586E-03      0.2774032677E-02
          0                 6           1            43    1    12      -0.1965254190E-03      43    1   25        -0.2316878866E-03      0.2625867953E-02
          0                 7           1            37    1     9      -0.3457977733E-03      38    1   26        -0.2043934887E-03      0.2471286303E-02
          0                 8           1            43    1    23      -0.1842270797E-03      43    1   25        -0.1911474220E-03      0.2385327474E-02
          0                 9           1            37    1    22      -0.2627002024E-03      52    1   28        -0.1794350706E-03      0.2260223635E-02
          0                10           1            43    1    23      -0.1764688442E-03      52    1   28        -0.1743188249E-03      0.2186740074E-02
                                                   Max.-Head-Change                         Max.-Flux-Residual
  Residual-Control   Outer-Iter.   Inner-Iter.     Column Row Layer    Maximum-Head-Change  Column Row Layer    Maximum-Flux-Residual          L2-NORM 
          0                11           1            37    1    22      -0.2214169880E-03      52    1   28        -0.1716712231E-03      0.2088525315E-02
          0                12           1            43    1    23      -0.1659211999E-03      52    1   28        -0.1710861814E-03      0.2020063477E-02
          0                13           1            38    1    40      -0.1979551551E-03      52    1   28        -0.1628348324E-03      0.1935638197E-02
          0                14           1            43    1    23      -0.1545765826E-03      52    1   28        -0.1648728091E-03      0.1872478399E-02
          0                15           1            40    1    40      -0.1816461771E-03      52    1   28        -0.1536410007E-03      0.1796350771E-02
          0                16           1            42    1    38      -0.1438988796E-03      52    1   28        -0.1571403183E-03      0.1738468151E-02
          0                17           1            45    1    35      -0.1688922346E-03      52    1   28        -0.1444750332E-03      0.1668491016E-02
          0                18           1            56    1    24      -0.1349282260E-03      52    1   28        -0.1486807164E-03      0.1615513438E-02
          0                19           1            45    1    35      -0.1574657754E-03      52    1   28        -0.1355499166E-03      0.1550649311E-02
          0                20           1            56    1    18      -0.1269154057E-03      52    1   28        -0.1399679793E-03      0.1502101855E-02
                                                   Max.-Head-Change                         Max.-Flux-Residual
  Residual-Control   Outer-Iter.   Inner-Iter.     Column Row Layer    Maximum-Head-Change  Column Row Layer    Maximum-Flux-Residual          L2-NORM 
          0                21           1            46    1    36      -0.1467845808E-03      52    1   28        -0.1269795441E-03      0.1441757628E-02
          0                22           1            56    1    18      -0.1191189365E-03      52    1   28        -0.1312946099E-03      0.1397162499E-02
          0                23           1            46    1    36      -0.1368370597E-03      52    1   28        -0.1188196222E-03      0.1340951581E-02
          0                24           1            56    1    18      -0.1116641191E-03      52    1   28        -0.1228414701E-03      0.1299867711E-02
          0                25           1            46    1    36      -0.1274382681E-03      52    1   28        -0.1110923272E-03      0.1247504681E-02
          0                26           1            56    1    18      -0.1050543882E-03      52    1   28        -0.1147178199E-03      0.1211858229E-02
          0                27           1            46    1    36      -0.1156330288E-03      52    1   28        -0.1038605238E-03      0.1159707475E-02
          0                28           1            56    1    18      -0.1008577950E-03      52    1   28        -0.1068483812E-03      0.1124892987E-02
          0                29           1            50    1    15      -0.1084021015E-03      52    1   28        -0.9668276384E-04      0.1079882748E-02
          0                30           1            56    1    18      -0.9322649927E-04      52    1   28        -0.9962609779E-04      0.1046157911E-02
                                                   Max.-Head-Change                         Max.-Flux-Residual
  Residual-Control   Outer-Iter.   Inner-Iter.     Column Row Layer    Maximum-Head-Change  Column Row Layer    Maximum-Flux-Residual          L2-NORM 
          0                31           1            50    1    15      -0.1021711949E-03      52    1   28        -0.9015413525E-04      0.1004520199E-02
          0                32           1            55    1    25      -0.9683941068E-04      52    1   28        -0.9274280737E-04      0.9759570138E-03
          0                33           1            50    1    15      -0.1004823521E-03      52    1   28        -0.8768000318E-04      0.9345265144E-03
          0                34           1            55    1    25      -0.8213715890E-04      52    1   28        -0.8635796858E-04      0.9080674602E-03
          0                35           1            50    1    15      -0.9033850526E-04      52    1   28        -0.8124957596E-04      0.8700629942E-03
          0                36           1            55    1    25      -0.7334451240E-04      52    1   28        -0.8091167103E-04      0.8437964918E-03
          0                37           1            50    1    24      -0.8391525915E-04      52    1   28        -0.7544435087E-04      0.8100047557E-03
          0                38           1            50    1    36      -0.6839277236E-04      52    1   28        -0.7563548158E-04      0.7853280862E-03
          0                39           1            50    1    24      -0.7806481734E-04      52    1   28        -0.7015455122E-04      0.7540776102E-03
          0                40           1            50    1    36      -0.6389202292E-04      52    1   28        -0.7053464574E-04      0.7310043073E-03
                                                   Max.-Head-Change                         Max.-Flux-Residual
  Residual-Control   Outer-Iter.   Inner-Iter.     Column Row Layer    Maximum-Head-Change  Column Row Layer    Maximum-Flux-Residual          L2-NORM 
          0                41           1            50    1    24      -0.7253445813E-04      52    1   28        -0.6530100052E-04      0.7020077498E-03
          0                42           1            50    1    36      -0.5971728645E-04      52    1   28        -0.6568046325E-04      0.6804305938E-03
          0                43           1            50    1    24      -0.6733428062E-04      52    1   28        -0.6081354458E-04      0.6535395770E-03
          0                44           1            50    1    36      -0.5582577332E-04      52    1   28        -0.6110953966E-04      0.6333479139E-03
          0                45           1            50    1    24      -0.6248042357E-04      52    1   28        -0.5664558438E-04      0.6084253918E-03
          0                46           1            50    1    36      -0.5218513727E-04      52    1   28        -0.5683101452E-04      0.5895222489E-03
          0                47           1            50    1    24      -0.5796983448E-04      52    1   28        -0.5276526090E-04      0.5664311689E-03
          0                48           1            50    1    36      -0.4877332218E-04      52    1   28        -0.5283912681E-04      0.5487316466E-03
          0                49           1            50    1    24      -0.5378714951E-04      52    1   28        -0.4914875024E-04      0.5273387872E-03
          0                50           1            50    1    36      -0.4557427292E-04      52    1   28        -0.4912117244E-04      0.5107666214E-03
                                                   Max.-Head-Change                         Max.-Flux-Residual
  Residual-Control   Outer-Iter.   Inner-Iter.     Column Row Layer    Maximum-Head-Change  Column Row Layer    Maximum-Flux-Residual          L2-NORM 
          0                51           1            50    1    24      -0.4991184870E-04      52    1   28        -0.4577661849E-04      0.4909458169E-03
          0                52           1            50    1    36      -0.4257494795E-04      52    1   28        -0.4566166299E-04      0.4754310400E-03
          0                53           1            50    1    24      -0.4632220545E-04      52    1   28        -0.4263199429E-04      0.4570644999E-03
          0                54           1            50    1    36      -0.3976379406E-04      52    1   28        -0.4244435223E-04      0.4425421073E-03
          0                55           1            50    1    24      -0.4299705048E-04      52    1   28        -0.3969966984E-04      0.4255205923E-03
          0                56           1            50    1    36      -0.3713007752E-04      52    1   28        -0.3945318936E-04      0.4119297811E-03
          0                57           1            50    1    24      -0.3991644280E-04      52    1   28        -0.3696565172E-04      0.3961522733E-03
          0                58           1            50    1    36      -0.3466362302E-04      52    1   28        -0.3667275544E-04      0.3834359709E-03
          0                59           1            50    1    24      -0.3706185556E-04      52    1   28        -0.3441692550E-04      0.3688091607E-03
          0                60           1            50    1    36      -0.3235472532E-04      52    1   28        -0.3408844977E-04      0.3569136961E-03
                                                   Max.-Head-Change                         Max.-Flux-Residual
  Residual-Control   Outer-Iter.   Inner-Iter.     Column Row Layer    Maximum-Head-Change  Column Row Layer    Maximum-Flux-Residual          L2-NORM 
          0                61           1            50    1    24      -0.3441616629E-04      52    1   28        -0.3204132517E-04      0.3433514299E-03
          0                62           1            50    1    36      -0.3019412342E-04      52    1   28        -0.3168655462E-04      0.3322262796E-03
          0                63           1            50    1    24      -0.3196358330E-04      52    1   28        -0.2982745137E-04      0.3196490213E-03
          0                64           1            50    1    36      -0.2817299295E-04      52    1   28        -0.2945423979E-04      0.3092465971E-03
          0                65           1            50    1    24      -0.2968954823E-04      52    1   28        -0.2776461447E-04      0.2975809206E-03
          0                66           1            50    1    36      -0.2628294217E-04      52    1   28        -0.2737953770E-04      0.2878563886E-03
          0                67           1            50    1    24      -0.2758064224E-04      52    1   28        -0.2584278977E-04      0.2770345046E-03
          0                68           1            50    1    36      -0.2451600408E-04      52    1   28        -0.2545130366E-04      0.2679456226E-03
          0                69           1            50    1    24      -0.2562449332E-04      52    1   28        -0.2405257905E-04      0.2579049402E-03
          0                70           1            50    1    36      -0.2286462865E-04      52    1   28        -0.2365917040E-04      0.2494119129E-03
                                                   Max.-Head-Change                         Max.-Flux-Residual
  Residual-Control   Outer-Iter.   Inner-Iter.     Column Row Layer    Maximum-Head-Change  Column Row Layer    Maximum-Flux-Residual          L2-NORM 
          0                71           1            50    1    24      -0.2380969412E-04      52    1   28        -0.2238517585E-04      0.2400946336E-03
          0                72           1            50    1    36      -0.2132166797E-04      52    1   28        -0.2199349974E-04      0.2321599784E-03
          0                73           1            50    1    24      -0.2212572381E-04      52    1   28        -0.2083233248E-04      0.2235127206E-03
          0                74           1            50    1    36      -0.1988036512E-04      52    1   28        -0.2044533512E-04      0.2161011452E-03
          0                75           1            50    1    24      -0.2056287529E-04      52    1   28        -0.1938632849E-04      0.2080745970E-03
          0                76           1            50    1    36      -0.1853434012E-04      52    1   28        -0.1900635561E-04      0.2011528840E-03
          0                77           1            50    1    24      -0.1911219139E-04      52    1   28        -0.1803994144E-04      0.1937014834E-03
          0                78           1            50    1    36      -0.1727757247E-04      52    1   28        -0.1766883204E-04      0.1872383813E-03
          0                79           1            50    1    24      -0.1776540438E-04      52    1   28        -0.1678641750E-04      0.1803200209E-03
          0                80           1            50    1    36      -0.1610438705E-04      52    1   28        -0.1642558436E-04      0.1742861416E-03
                                                   Max.-Head-Change                         Max.-Flux-Residual
  Residual-Control   Outer-Iter.   Inner-Iter.     Column Row Layer    Maximum-Head-Change  Column Row Layer    Maximum-Flux-Residual          L2-NORM 
          0                81           1            50    1    24      -0.1651488003E-04      52    1   28        -0.1561944458E-04      0.1678618973E-03
          0                82           1            50    1    36      -0.1500943893E-04      52    1   28        -0.1526994431E-04      0.1622296182E-03
          0                83           1            50    1    24      -0.1535356777E-04      52    1   28        -0.1453312545E-04      0.1562634988E-03
          0                84           1            50    1    36      -0.1398769767E-04      52    1   28        -0.1419571777E-04      0.1510068693E-03
          0                85           1            50    1    24      -0.1427495240E-04      52    1   28        -0.1352195299E-04      0.1454655864E-03
          0                86           1            50    1    36      -0.1303443209E-04      52    1   28        -0.1319715128E-04      0.1405602381E-03
          0                87           1            50    1    24      -0.1327301185E-04      52    1   28        -0.1258078572E-04      0.1354129951E-03
          0                88           1            51    1    37      -0.1214597614E-04      52    1   28        -0.1226890049E-04      0.1308360568E-03
          0                89           1            50    1    24      -0.1234217897E-04      52    1   28        -0.1170482564E-04      0.1260543548E-03
          0                90           1            51    1    37      -0.1131739646E-04      52    1   28        -0.1140600074E-04      0.1217843692E-03
                                                   Max.-Head-Change                         Max.-Flux-Residual
  Residual-Control   Outer-Iter.   Inner-Iter.     Column Row Layer    Maximum-Head-Change  Column Row Layer    Maximum-Flux-Residual          L2-NORM 
          0                91           1            50    1    24      -0.1147730594E-04      52    1   28        -0.1088959618E-04      0.1173418284E-03
          0                92           1            51    1    37      -0.1054458594E-04      52    1   28        -0.1060383971E-04      0.1133586748E-03
          0                93           1            50    1    24      -0.1067362897E-04      52    1   28        -0.1013092239E-04      0.1092308698E-03
          0                94           1            51    1    37      -0.9823893301E-05      52    1   28        -0.9858132444E-05      0.1055156884E-03
          0                95           1            50    1    24      -0.9926740116E-05      52    1   28        -0.9424910473E-05      0.1016799986E-03

    ------------------------------------------------
       NWT REQUIRED           95 OUTER ITERATIONS 
       AND A TOTAL OF        106 INNER ITERATIONS.
    ------------------------------------------------

 OUTPUT CONTROL FOR STRESS PERIOD    2   TIME STEP    7
    PRINT BUDGET
    SAVE HEAD FOR ALL LAYERS
    SAVE DRAWDOWN FOR ALL LAYERS
    SAVE BUDGET
 UBDSV1 SAVING "         STORAGE" ON UNIT  40 AT TIME STEP  7, STRESS PERIOD   2
 UBDSV2 SAVING "   CONSTANT HEAD" ON UNIT  40 AT TIME STEP  7, STRESS PERIOD   2
 UBDSV1 SAVING "FLOW RIGHT FACE " ON UNIT  40 AT TIME STEP  7, STRESS PERIOD   2
 UBDSV1 SAVING "FLOW LOWER FACE " ON UNIT  40 AT TIME STEP  7, STRESS PERIOD   2
 UBDSV4 SAVING "          DRAINS" ON UNIT  40 AT TIME STEP  7, STRESS PERIOD   2
 UBDSV4 SAVING " HEAD DEP BOUNDS" ON UNIT  40 AT TIME STEP  7, STRESS PERIOD   2

 SAVING SATURATED THICKNESS AND FLOW TERMS ON UNIT  333 FOR MT3DMS
 BY THE LINK-MT3DMS PACKAGE V7 AT TIME STEP    7, STRESS PERIOD    2


 HEAD WILL BE SAVED ON UNIT    2 AT END OF TIME STEP    7, STRESS PERIOD    2

 DRAWDOWN WILL BE SAVED ON UNIT   12 AT END OF TIME STEP    7, STRESS PERIOD    2
1
  VOLUMETRIC BUDGET FOR ENTIRE MODEL AT END OF TIME STEP    7, STRESS PERIOD   2
  ------------------------------------------------------------------------------

     CUMULATIVE VOLUMES      L**3       RATES FOR THIS TIME STEP      L**3/T
     ------------------                 ------------------------

           IN:                                      IN:
           ---                                      ---
             STORAGE     =          66.2476               STORAGE     =           0.4195
       CONSTANT HEAD     =           0.0000         CONSTANT HEAD     =           0.0000
              DRAINS     =           0.0000                DRAINS     =           0.0000
     HEAD DEP BOUNDS     =         446.4491       HEAD DEP BOUNDS     =          10.5167

                TOTAL IN =         512.6967                  TOTAL IN =          10.9362

          OUT:                                     OUT:
          ----                                     ----
             STORAGE     =       1.7946E-08               STORAGE     =       9.0226E-11
       CONSTANT HEAD     =           0.0000         CONSTANT HEAD     =           0.0000
              DRAINS     =         500.4691                DRAINS     =          10.9384
     HEAD DEP BOUNDS     =          12.2682       HEAD DEP BOUNDS     =           0.0000

               TOTAL OUT =         512.7373                 TOTAL OUT =          10.9384

                IN - OUT =      -4.0588E-02                  IN - OUT =      -2.1915E-03

     PERCENT DISCREPANCY =          -0.01         PERCENT DISCREPANCY =          -0.02






         TIME SUMMARY AT END OF TIME STEP    7 IN STRESS PERIOD    2
                    SECONDS     MINUTES      HOURS       DAYS        YEARS
                    -----------------------------------------------------------
   TIME STEP LENGTH  86400.      1440.0      24.000      1.0000     2.73785E-03
 STRESS PERIOD TIME 6.04800E+05  10080.      168.00      7.0000     1.91650E-02
         TOTAL TIME 1.46880E+06  24480.      408.00      17.000     4.65435E-02
1
 
 SOLVING FOR HEAD 
                                                   Max.-Head-Change                         Max.-Flux-Residual
  Residual-Control   Outer-Iter.   Inner-Iter.     Column Row Layer    Maximum-Head-Change  Column Row Layer    Maximum-Flux-Residual          L2-NORM 
          0                 1          11            61    1    26      -0.5304702415E-01      60    1   26        -0.7663810621E-02      0.4944277399E-01
          0                 2           2            70    1    28      -0.4989166096E-02      78    1   31         0.2870706325E-01      0.4973189333E-01
          0                 3           1            30    1     6      -0.2100147850E-03      78    1   31         0.6336496001E-03      0.2058079054E-02
          0                 4           1            37    1    22      -0.1796177258E-03      45    1   27        -0.1501205413E-03      0.1625668221E-02
          0                 5           1            37    1     9      -0.2590152158E-03      49    1   27        -0.1354030460E-03      0.1523604865E-02
          0                 6           1            37    1    21      -0.1114200046E-03      36    1   23        -0.1601403956E-03      0.1443454533E-02
          0                 7           1            37    1    22      -0.2309184263E-03      49    1   27        -0.1126802531E-03      0.1357764913E-02
          0                 8           1            43    1    23      -0.1008657301E-03      36    1   23        -0.1402856875E-03      0.1318060833E-02
          0                 9           1            37    1    22      -0.1589899779E-03      49    1   27        -0.1048108906E-03      0.1236935172E-02
          0                10           1            43    1    23      -0.9807178565E-04      45    1   27        -0.1024814080E-03      0.1201070168E-02
                                                   Max.-Head-Change                         Max.-Flux-Residual
  Residual-Control   Outer-Iter.   Inner-Iter.     Column Row Layer    Maximum-Head-Change  Column Row Layer    Maximum-Flux-Residual          L2-NORM 
          0                11           1            37    1    22      -0.1270292776E-03      49    1   27        -0.9844261685E-04      0.1142125205E-02
          0                12           1            43    1    23      -0.9380684305E-04      45    1   27        -0.9341004034E-04      0.1107283309E-02
          0                13           1            39    1    39      -0.1104043436E-03      49    1   27        -0.9202239035E-04      0.1058903427E-02
          0                14           1            41    1    37      -0.8853925588E-04      45    1   27        -0.8570589324E-04      0.1025543384E-02
          0                15           1            40    1    40      -0.9906688057E-04      49    1   27        -0.8572739101E-04      0.9833257423E-03
          0                16           1            42    1    38      -0.8337337738E-04      45    1   27        -0.7890463286E-04      0.9518170247E-03
          0                17           1            40    1    40      -0.9045059862E-04      49    1   27        -0.7972776210E-04      0.9143260427E-03
          0                18           1            43    1    39      -0.7771551386E-04      45    1   27        -0.7285614561E-04      0.8841604899E-03
          0                19           1            45    1    35      -0.8297812751E-04      49    1   27        -0.7402210859E-04      0.8494143061E-03
          0                20           1            43    1    39      -0.7279954008E-04      45    1   27        -0.6727409263E-04      0.8218090882E-03
                                                   Max.-Head-Change                         Max.-Flux-Residual
  Residual-Control   Outer-Iter.   Inner-Iter.     Column Row Layer    Maximum-Head-Change  Column Row Layer    Maximum-Flux-Residual          L2-NORM 
          0                21           1            45    1    35      -0.7643745746E-04      49    1   27        -0.6878542285E-04      0.7899148826E-03
          0                22           1            43    1    39      -0.6813878533E-04      45    1   27        -0.6213677543E-04      0.7640999592E-03
          0                23           1            46    1    36      -0.7060823481E-04      49    1   27        -0.6389888928E-04      0.7348222936E-03
          0                24           1            44    1    40      -0.6370900705E-04      45    1   27        -0.5742158331E-04      0.7106504271E-03
          0                25           1            46    1    36      -0.6534445241E-04      49    1   27        -0.5933869799E-04      0.6837031471E-03
          0                26           1            44    1    40      -0.5953178618E-04      45    1   27        -0.5308716047E-04      0.6610665448E-03
          0                27           1            46    1    36      -0.6052176596E-04      49    1   27        -0.5508916145E-04      0.6362156550E-03
          0                28           1            44    1    40      -0.5558410038E-04      45    1   27        -0.4909673484E-04      0.6150133126E-03
          0                29           1            47    1    37      -0.5609900409E-04      49    1   27        -0.5113322419E-04      0.5920675885E-03
          0                30           1            44    1    40      -0.5186798882E-04      45    1   27        -0.4541893404E-04      0.5722046330E-03
                                                   Max.-Head-Change                         Max.-Flux-Residual
  Residual-Control   Outer-Iter.   Inner-Iter.     Column Row Layer    Maximum-Head-Change  Column Row Layer    Maximum-Flux-Residual          L2-NORM 
          0                31           1            47    1    37      -0.5202736749E-04      49    1   27        -0.4745319369E-04      0.5510017544E-03
          0                32           1            44    1    40      -0.4837867079E-04      45    1   27        -0.4202656353E-04      0.5323906136E-03
          0                33           1            47    1    37      -0.4825679762E-04      49    1   27        -0.4403165759E-04      0.5127883993E-03
          0                34           1            44    1    40      -0.4510795926E-04      45    1   27        -0.3889562376E-04      0.4953488257E-03
          0                35           1            47    1    37      -0.4476266039E-04      49    1   27        -0.4085189525E-04      0.4772201413E-03
          0                36           1            44    1    38      -0.4205270955E-04      45    1   27        -0.3600465524E-04      0.4608785704E-03
          0                37           1            47    1    37      -0.4152361700E-04      49    1   27        -0.3789801029E-04      0.4441082873E-03
          0                38           1            44    1    38      -0.3921730833E-04      45    1   27        -0.3333429356E-04      0.4287970065E-03
          0                39           1            61    1    25      -0.3859301946E-04      49    1   27        -0.3515495041E-04      0.4132800656E-03
          0                40           1            46    1    40      -0.3657966624E-04      45    1   27        -0.3086695639E-04      0.3989364170E-03
                                                   Max.-Head-Change                         Max.-Flux-Residual
  Residual-Control   Outer-Iter.   Inner-Iter.     Column Row Layer    Maximum-Head-Change  Column Row Layer    Maximum-Flux-Residual          L2-NORM 
          0                41           1            61    1    25      -0.3594410732E-04      49    1   27        -0.3260849158E-04      0.3845765104E-03
          0                42           1            46    1    40      -0.3412074106E-04      45    1   27        -0.2858660812E-04      0.3711422078E-03
          0                43           1            61    1    25      -0.3346512418E-04      49    1   27        -0.3024521219E-04      0.3578508099E-03
          0                44           1            46    1    40      -0.3182009970E-04      45    1   27        -0.2647858020E-04      0.3452713817E-03
          0                45           1            61    1    25      -0.3114751996E-04      49    1   27        -0.2805246713E-04      0.3329669916E-03
          0                46           1            46    1    40      -0.2966865946E-04      50    1   26        -0.2456179621E-04      0.3211913389E-03
          0                47           1            61    1    25      -0.2898271360E-04      49    1   27        -0.2601836270E-04      0.3097988559E-03
          0                48           1            46    1    40      -0.2765766427E-04      50    1   26        -0.2281818939E-04      0.2987789014E-03
          0                49           1            61    1    25      -0.2696219430E-04      49    1   27        -0.2413173145E-04      0.2882290893E-03
          0                50           1            46    1    40      -0.2577871508E-04      50    1   26        -0.2119938495E-04      0.2779195029E-03
                                                   Max.-Head-Change                         Max.-Flux-Residual
  Residual-Control   Outer-Iter.   Inner-Iter.     Column Row Layer    Maximum-Head-Change  Column Row Layer    Maximum-Flux-Residual          L2-NORM 
          0                51           1            61    1    25      -0.2507760834E-04      49    1   27        -0.2238210639E-04      0.2681485142E-03
          0                52           1            54    1    38      -0.2405235672E-04      50    1   26        -0.1969622721E-04      0.2585064952E-03
          0                53           1            61    1    25      -0.2332082461E-04      49    1   27        -0.2075969428E-04      0.2494554420E-03
          0                54           1            54    1    38      -0.2243855642E-04      50    1   26        -0.1830026542E-04      0.2404405427E-03
          0                55           1            61    1    25      -0.2168398868E-04      49    1   27        -0.1925534683E-04      0.2320551073E-03
          0                56           1            54    1    38      -0.2092739156E-04      50    1   26        -0.1700369734E-04      0.2236290882E-03
          0                57           1            61    1    25      -0.2015956034E-04      49    1   27        -0.1786053069E-04      0.2158591626E-03
          0                58           1            54    1    38      -0.1951326121E-04      50    1   26        -0.1579931617E-04      0.2079858712E-03
          0                59           1            61    1    25      -0.1874033669E-04      49    1   27        -0.1656729704E-04      0.2007852263E-03
          0                60           1            54    1    38      -0.1819070909E-04      50    1   26        -0.1468046250E-04      0.1934304907E-03
                                                   Max.-Head-Change                         Max.-Flux-Residual
  Residual-Control   Outer-Iter.   Inner-Iter.     Column Row Layer    Maximum-Head-Change  Column Row Layer    Maximum-Flux-Residual          L2-NORM 
          0                61           1            61    1    25      -0.1741946796E-04      49    1   27        -0.1536825008E-04      0.1867564709E-03
          0                62           1            54    1    38      -0.1695445087E-04      50    1   26        -0.1364097938E-04      0.1798880043E-03
          0                63           1            61    1    25      -0.1619046269E-04      49    1   27        -0.1425651526E-04      0.1737012449E-03
          0                64           1            54    1    38      -0.1579939718E-04      50    1   26        -0.1267517085E-04      0.1672885596E-03
          0                65           1            61    1    25      -0.1504719020E-04      49    1   27        -0.1322570819E-04      0.1615527276E-03
          0                66           1            54    1    38      -0.1472066651E-04      50    1   26        -0.1177776485E-04      0.1555670530E-03
          0                67           1            61    1    25      -0.1398387359E-04      49    1   27        -0.1226990331E-04      0.1502486059E-03
          0                68           1            54    1    38      -0.1371359509E-04      50    1   26        -0.1094387886E-04      0.1446628110E-03
          0                69           1            61    1    25      -0.1299508112E-04      49    1   27        -0.1138360518E-04      0.1397307761E-03
          0                70           1            54    1    38      -0.1277374106E-04      50    1   26        -0.1016898892E-04      0.1345192949E-03
                                                   Max.-Head-Change                         Max.-Flux-Residual
  Residual-Control   Outer-Iter.   Inner-Iter.     Column Row Layer    Maximum-Head-Change  Column Row Layer    Maximum-Flux-Residual          L2-NORM 
          0                71           1            61    1    25      -0.1207571645E-04      50    1   26        -0.1056374296E-04      0.1299450666E-03
          0                72           1            54    1    38      -0.1189688521E-04      50    1   26        -0.9448901693E-05      0.1250838257E-03
          0                73           1            61    1    25      -0.1122100337E-04      50    1   26        -0.9810225379E-05      0.1208409769E-03
          0                74           1            55    1    39      -0.1107975304E-04      50    1   26        -0.8779727750E-05      0.1163073250E-03
          0                75           1            61    1    25      -0.1042647340E-04      50    1   26        -0.9110118853E-05      0.1123714363E-03
          0                76           1            55    1    39      -0.1031781203E-04      50    1   26        -0.8157859128E-05      0.1081440752E-03
          0                77           1            61    1    25      -0.9687949460E-05      50    1   26        -0.8459684082E-05      0.1044925760E-03
          0                78           1            55    1    39      -0.9607315723E-05      50    1   26        -0.7579947422E-05      0.1005514937E-03

    ------------------------------------------------
       NWT REQUIRED           78 OUTER ITERATIONS 
       AND A TOTAL OF         89 INNER ITERATIONS.
    ------------------------------------------------

 OUTPUT CONTROL FOR STRESS PERIOD    2   TIME STEP    8
    PRINT BUDGET
    SAVE HEAD FOR ALL LAYERS
    SAVE DRAWDOWN FOR ALL LAYERS
    SAVE BUDGET
 UBDSV1 SAVING "         STORAGE" ON UNIT  40 AT TIME STEP  8, STRESS PERIOD   2
 UBDSV2 SAVING "   CONSTANT HEAD" ON UNIT  40 AT TIME STEP  8, STRESS PERIOD   2
 UBDSV1 SAVING "FLOW RIGHT FACE " ON UNIT  40 AT TIME STEP  8, STRESS PERIOD   2
 UBDSV1 SAVING "FLOW LOWER FACE " ON UNIT  40 AT TIME STEP  8, STRESS PERIOD   2
 UBDSV4 SAVING "          DRAINS" ON UNIT  40 AT TIME STEP  8, STRESS PERIOD   2
 UBDSV4 SAVING " HEAD DEP BOUNDS" ON UNIT  40 AT TIME STEP  8, STRESS PERIOD   2

 SAVING SATURATED THICKNESS AND FLOW TERMS ON UNIT  333 FOR MT3DMS
 BY THE LINK-MT3DMS PACKAGE V7 AT TIME STEP    8, STRESS PERIOD    2


 HEAD WILL BE SAVED ON UNIT    2 AT END OF TIME STEP    8, STRESS PERIOD    2

 DRAWDOWN WILL BE SAVED ON UNIT   12 AT END OF TIME STEP    8, STRESS PERIOD    2
1
  VOLUMETRIC BUDGET FOR ENTIRE MODEL AT END OF TIME STEP    8, STRESS PERIOD   2
  ------------------------------------------------------------------------------

     CUMULATIVE VOLUMES      L**3       RATES FOR THIS TIME STEP      L**3/T
     ------------------                 ------------------------

           IN:                                      IN:
           ---                                      ---
             STORAGE     =          66.4637               STORAGE     =           0.2161
       CONSTANT HEAD     =           0.0000         CONSTANT HEAD     =           0.0000
              DRAINS     =           0.0000                DRAINS     =           0.0000
     HEAD DEP BOUNDS     =         457.0536       HEAD DEP BOUNDS     =          10.6045

                TOTAL IN =         523.5173                  TOTAL IN =          10.8206

          OUT:                                     OUT:
          ----                                     ----
             STORAGE     =       1.8142E-08               STORAGE     =       1.9637E-10
       CONSTANT HEAD     =           0.0000         CONSTANT HEAD     =           0.0000
              DRAINS     =         511.2919                DRAINS     =          10.8228
     HEAD DEP BOUNDS     =          12.2682       HEAD DEP BOUNDS     =           0.0000

               TOTAL OUT =         523.5601                 TOTAL OUT =          10.8228

                IN - OUT =      -4.2725E-02                  IN - OUT =      -2.1610E-03

     PERCENT DISCREPANCY =          -0.01         PERCENT DISCREPANCY =          -0.02






         TIME SUMMARY AT END OF TIME STEP    8 IN STRESS PERIOD    2
                    SECONDS     MINUTES      HOURS       DAYS        YEARS
                    -----------------------------------------------------------
   TIME STEP LENGTH  86400.      1440.0      24.000      1.0000     2.73785E-03
 STRESS PERIOD TIME 6.91200E+05  11520.      192.00      8.0000     2.19028E-02
         TOTAL TIME 1.55520E+06  25920.      432.00      18.000     4.92813E-02
1
 
 SOLVING FOR HEAD 
                                                   Max.-Head-Change                         Max.-Flux-Residual
  Residual-Control   Outer-Iter.   Inner-Iter.     Column Row Layer    Maximum-Head-Change  Column Row Layer    Maximum-Flux-Residual          L2-NORM 
          0                 1           6            61    1    26      -0.1668885413E-01      54    1   25        -0.3863747028E-02      0.2523449722E-01
          0                 2           1            66    1    28      -0.7815838964E-03      65    1   28         0.9582620643E-02      0.1404596513E-01
          0                 3           6            61    1    26      -0.1258313454E-01      64    1   30        -0.4734056733E-03      0.4860672044E-02
          0                 4           2            36    1    15      -0.1097293145E-02      64    1   28        -0.4766825232E-02      0.9517208522E-02
          0                 5           1            30    1     6      -0.3672162413E-04      64    1   28        -0.2844216668E-03      0.6032179471E-03
          0                 6           1            30    1    20      -0.1297325740E-03      31    1   25        -0.3459090178E-04      0.3103519687E-03
          0                 7           1            26    1    36      -0.2092454317E-04      61    1   29         0.6362829636E-04      0.2553582233E-03
          0                 8           1            26    1    38      -0.3059919157E-04      41    1   27        -0.2153287650E-04      0.2166980360E-03
          0                 9           1            26    1    38      -0.2096220145E-04      61    1   29         0.2266333193E-04      0.2005009440E-03
          0                10           1            30    1    21      -0.2083370489E-04      31    1   25        -0.1802970138E-04      0.1836082641E-03
                                                   Max.-Head-Change                         Max.-Flux-Residual
  Residual-Control   Outer-Iter.   Inner-Iter.     Column Row Layer    Maximum-Head-Change  Column Row Layer    Maximum-Flux-Residual          L2-NORM 
          0                11           1            27    1    39      -0.2122296288E-04      35    1   25        -0.1732805643E-04      0.1710550304E-03
          0                12           1            30    1    21      -0.1594027992E-04      41    1   27        -0.1672918023E-04      0.1600486669E-03
          0                13           1            27    1    39      -0.2056397868E-04      35    1   25        -0.1460890297E-04      0.1485143285E-03
          0                14           1            30    1    21      -0.1291114341E-04      41    1   27        -0.1572759692E-04      0.1409863829E-03
          0                15           1            28    1    40      -0.1867774535E-04      35    1   25        -0.1255149257E-04      0.1300963617E-03
          0                16           1            30    1    21      -0.1097279701E-04      41    1   27        -0.1453639436E-04      0.1250653959E-03
          0                17           1            31    1    33      -0.1585451110E-04      35    1   25        -0.1090150556E-04      0.1151509851E-03
          0                18           1            30    1    21      -0.9727780824E-05      41    1   27        -0.1311669317E-04      0.1116591192E-03
          0                19           1            31    1    31      -0.1302718168E-04      41    1   27        -0.9845802140E-05      0.1032294187E-03
          0                20           1            30    1    21      -0.8888696367E-05      41    1   27        -0.1167488563E-04      0.1004680555E-03

    ------------------------------------------------
       NWT REQUIRED           20 OUTER ITERATIONS 
       AND A TOTAL OF         31 INNER ITERATIONS.
    ------------------------------------------------

 OUTPUT CONTROL FOR STRESS PERIOD    2   TIME STEP    9
    PRINT BUDGET
    SAVE HEAD FOR ALL LAYERS
    SAVE DRAWDOWN FOR ALL LAYERS
    SAVE BUDGET
 UBDSV1 SAVING "         STORAGE" ON UNIT  40 AT TIME STEP  9, STRESS PERIOD   2
 UBDSV2 SAVING "   CONSTANT HEAD" ON UNIT  40 AT TIME STEP  9, STRESS PERIOD   2
 UBDSV1 SAVING "FLOW RIGHT FACE " ON UNIT  40 AT TIME STEP  9, STRESS PERIOD   2
 UBDSV1 SAVING "FLOW LOWER FACE " ON UNIT  40 AT TIME STEP  9, STRESS PERIOD   2
 UBDSV4 SAVING "          DRAINS" ON UNIT  40 AT TIME STEP  9, STRESS PERIOD   2
 UBDSV4 SAVING " HEAD DEP BOUNDS" ON UNIT  40 AT TIME STEP  9, STRESS PERIOD   2

 SAVING SATURATED THICKNESS AND FLOW TERMS ON UNIT  333 FOR MT3DMS
 BY THE LINK-MT3DMS PACKAGE V7 AT TIME STEP    9, STRESS PERIOD    2


 HEAD WILL BE SAVED ON UNIT    2 AT END OF TIME STEP    9, STRESS PERIOD    2

 DRAWDOWN WILL BE SAVED ON UNIT   12 AT END OF TIME STEP    9, STRESS PERIOD    2
1
  VOLUMETRIC BUDGET FOR ENTIRE MODEL AT END OF TIME STEP    9, STRESS PERIOD   2
  ------------------------------------------------------------------------------

     CUMULATIVE VOLUMES      L**3       RATES FOR THIS TIME STEP      L**3/T
     ------------------                 ------------------------

           IN:                                      IN:
           ---                                      ---
             STORAGE     =          66.5767               STORAGE     =           0.1130
       CONSTANT HEAD     =           0.0000         CONSTANT HEAD     =           0.0000
              DRAINS     =           0.0000                DRAINS     =           0.0000
     HEAD DEP BOUNDS     =         467.7017       HEAD DEP BOUNDS     =          10.6481

                TOTAL IN =         534.2784                  TOTAL IN =          10.7611

          OUT:                                     OUT:
          ----                                     ----
             STORAGE     =       1.8535E-08               STORAGE     =       3.9321E-10
       CONSTANT HEAD     =           0.0000         CONSTANT HEAD     =           0.0000
              DRAINS     =         522.0548                DRAINS     =          10.7629
     HEAD DEP BOUNDS     =          12.2682       HEAD DEP BOUNDS     =           0.0000

               TOTAL OUT =         534.3230                 TOTAL OUT =          10.7629

                IN - OUT =      -4.4617E-02                  IN - OUT =      -1.8768E-03

     PERCENT DISCREPANCY =          -0.01         PERCENT DISCREPANCY =          -0.02






         TIME SUMMARY AT END OF TIME STEP    9 IN STRESS PERIOD    2
                    SECONDS     MINUTES      HOURS       DAYS        YEARS
                    -----------------------------------------------------------
   TIME STEP LENGTH  86400.      1440.0      24.000      1.0000     2.73785E-03
 STRESS PERIOD TIME 7.77600E+05  12960.      216.00      9.0000     2.46407E-02
         TOTAL TIME 1.64160E+06  27360.      456.00      19.000     5.20192E-02
1
 
 SOLVING FOR HEAD 
                                                   Max.-Head-Change                         Max.-Flux-Residual
  Residual-Control   Outer-Iter.   Inner-Iter.     Column Row Layer    Maximum-Head-Change  Column Row Layer    Maximum-Flux-Residual          L2-NORM 
          0                 1           6            66    1    23      -0.9282757175E-02      61    1   27        -0.1992879070E-02      0.1306223551E-01
          0                 2           1            60    1    26      -0.8770542226E-03      60    1   26        -0.2444290499E-02      0.4288837514E-02
          0                 3           1            46    1    40      -0.9078231599E-03      56    1   28        -0.2420224582E-03      0.2555629372E-02
          0                 4           1            60    1    26      -0.2013601513E-03      58    1   28        -0.3123939330E-03      0.2305483866E-02
          0                 5           1            55    1    25      -0.3695014690E-03      56    1   28        -0.2255835316E-03      0.2154564607E-02
          0                 6           1            60    1    26      -0.1781155409E-03      58    1   28        -0.2307083232E-03      0.2052490886E-02
          0                 7           1            55    1    25      -0.3305488514E-03      56    1   28        -0.1975595053E-03      0.1963073119E-02
          0                 8           1            60    1    26      -0.1515411931E-03      60    1   28        -0.2231615886E-03      0.1875483352E-02
          0                 9           1            55    1    25      -0.2774417733E-03      56    1   28        -0.1750071395E-03      0.1794599770E-02
          0                10           1            60    1    26      -0.1370822493E-03      60    1   28        -0.2030226269E-03      0.1718932801E-02
                                                   Max.-Head-Change                         Max.-Flux-Residual
  Residual-Control   Outer-Iter.   Inner-Iter.     Column Row Layer    Maximum-Head-Change  Column Row Layer    Maximum-Flux-Residual          L2-NORM 
          0                11           1            55    1    25      -0.2375379523E-03      56    1   28        -0.1579684387E-03      0.1647771356E-02
          0                12           1            60    1    26      -0.1267256853E-03      60    1   28        -0.1805400049E-03      0.1581068130E-02
          0                13           1            55    1    25      -0.2071284989E-03      56    1   28        -0.1435095464E-03      0.1517788457E-02
          0                14           1            60    1    26      -0.1179770553E-03      60    1   28        -0.1606410840E-03      0.1457978526E-02
          0                15           1            55    1    25      -0.1837395052E-03      56    1   28        -0.1307836786E-03      0.1401085481E-02
          0                16           1            54    1    34      -0.1107805895E-03      60    1   28        -0.1437815059E-03      0.1346832141E-02
          0                17           1            55    1    25      -0.1651839363E-03      56    1   28        -0.1193995169E-03      0.1295165134E-02
          0                18           1            54    1    34      -0.1034900126E-03      60    1   28        -0.1294755675E-03      0.1245592385E-02
          0                19           1            55    1    25      -0.1500053167E-03      56    1   28        -0.1091397979E-03      0.1198316405E-02
          0                20           1            54    1    34      -0.9624697278E-04      60    1   28        -0.1171863937E-03      0.1152816037E-02
                                                   Max.-Head-Change                         Max.-Flux-Residual
  Residual-Control   Outer-Iter.   Inner-Iter.     Column Row Layer    Maximum-Head-Change  Column Row Layer    Maximum-Flux-Residual          L2-NORM 
          0                21           1            55    1    25      -0.1372414903E-03      56    1   28        -0.9985753664E-04      0.1109322727E-02
          0                22           1            54    1    34      -0.8918798191E-04      60    1   28        -0.1064819762E-03      0.1067442588E-02
          0                23           1            55    1    25      -0.1262496394E-03      56    1   28        -0.9143885322E-04      0.1027275663E-02
          0                24           1            54    1    34      -0.8098437471E-04      60    1   28        -0.9703854593E-04      0.9898627270E-03
          0                25           1            55    1    25      -0.1216143515E-03      56    1   28        -0.8312248093E-04      0.9518371967E-03
          0                26           1            54    1    34      -0.7390724174E-04      60    1   28        -0.8981056314E-04      0.9156794272E-03
          0                27           1            51    1    37      -0.1132308570E-03      56    1   28        -0.7612922560E-04      0.8806347950E-03
          0                28           1            48    1    38      -0.6790068932E-04      60    1   28        -0.8224594708E-04      0.8473655318E-03
          0                29           1            51    1    37      -0.1051506918E-03      56    1   28        -0.6975936310E-04      0.8147257661E-03
          0                30           1            48    1    38      -0.6274518485E-04      60    1   28        -0.7517262878E-04      0.7840521479E-03
                                                   Max.-Head-Change                         Max.-Flux-Residual
  Residual-Control   Outer-Iter.   Inner-Iter.     Column Row Layer    Maximum-Head-Change  Column Row Layer    Maximum-Flux-Residual          L2-NORM 
          0                31           1            51    1    37      -0.9749154978E-04      56    1   28        -0.6396296214E-04      0.7537179317E-03
          0                32           1            48    1    38      -0.5797004149E-04      60    1   28        -0.6867261973E-04      0.7254161348E-03
          0                33           1            51    1    37      -0.9033053047E-04      56    1   28        -0.5867336432E-04      0.6972541336E-03
          0                34           1            48    1    38      -0.5352462910E-04      60    1   28        -0.6272264807E-04      0.6711319746E-03
          0                35           1            52    1    38      -0.8368305143E-04      56    1   28        -0.5383588184E-04      0.6449966704E-03
          0                36           1            48    1    38      -0.4938865076E-04      60    1   28        -0.5727238602E-04      0.6208836993E-03
          0                37           1            52    1    38      -0.7749642625E-04      56    1   28        -0.4940575988E-04      0.5966339718E-03
          0                38           1            48    1    38      -0.4555049767E-04      61    1   27        -0.5264358448E-04      0.5743770433E-03
          0                39           1            52    1    38      -0.7169941699E-04      56    1   28        -0.4534530871E-04      0.5518824322E-03
          0                40           1            48    1    38      -0.4199978735E-04      61    1   27        -0.4885872377E-04      0.5313426152E-03
                                                   Max.-Head-Change                         Max.-Flux-Residual
  Residual-Control   Outer-Iter.   Inner-Iter.     Column Row Layer    Maximum-Head-Change  Column Row Layer    Maximum-Flux-Residual          L2-NORM 
          0                41           1            52    1    38      -0.6625484274E-04      56    1   28        -0.4162206167E-04      0.5104841858E-03
          0                42           1            48    1    38      -0.3872517960E-04      61    1   27        -0.4531378545E-04      0.4915343162E-03
          0                43           1            52    1    38      -0.6113490579E-04      56    1   28        -0.3820763479E-04      0.4722034487E-03
          0                44           1            48    1    38      -0.3571404064E-04      61    1   27        -0.4199477431E-04      0.4547261697E-03
          0                45           1            52    1    38      -0.5632017630E-04      56    1   28        -0.3507692496E-04      0.4368228154E-03
          0                46           1            48    1    38      -0.3295264046E-04      61    1   27        -0.3888930630E-04      0.4207090364E-03
          0                47           1            52    1    38      -0.5179763738E-04      56    1   28        -0.3220747476E-04      0.4041400477E-03
          0                48           1            48    1    38      -0.3042642879E-04      61    1   27        -0.3598648622E-04      0.3892877765E-03
          0                49           1            52    1    36      -0.4761948884E-04      56    1   28        -0.2957893903E-04      0.3739655303E-03
          0                50           1            48    1    36      -0.2813297015E-04      61    1   27        -0.3327664190E-04      0.3602790314E-03
                                                   Max.-Head-Change                         Max.-Flux-Residual
  Residual-Control   Outer-Iter.   Inner-Iter.     Column Row Layer    Maximum-Head-Change  Column Row Layer    Maximum-Flux-Residual          L2-NORM 
          0                51           1            52    1    36      -0.4370995393E-04      61    1   27        -0.2720068620E-04      0.3461203966E-03
          0                52           1            48    1    36      -0.2608648322E-04      61    1   27        -0.3075098739E-04      0.3335096283E-03
          0                53           1            52    1    36      -0.4006152042E-04      61    1   27        -0.2510206706E-04      0.3204352703E-03
          0                54           1            48    1    36      -0.2421851805E-04      61    1   27        -0.2840126916E-04      0.3088155435E-03
          0                55           1            52    1    36      -0.3666908319E-04      61    1   27        -0.2318294547E-04      0.2967495254E-03
          0                56           1            49    1    37      -0.2252041330E-04      61    1   27        -0.2621944462E-04      0.2860413249E-03
          0                57           1            52    1    36      -0.3352647147E-04      61    1   27        -0.2142702307E-04      0.2749109475E-03
          0                58           1            49    1    37      -0.2100230166E-04      61    1   27        -0.2419743167E-04      0.2650398488E-03
          0                59           1            53    1    37      -0.3064730034E-04      61    1   27        -0.1981926415E-04      0.2547756666E-03
          0                60           1            49    1    37      -0.1961168599E-04      61    1   27        -0.2232695594E-04      0.2456722968E-03
                                                   Max.-Head-Change                         Max.-Flux-Residual
  Residual-Control   Outer-Iter.   Inner-Iter.     Column Row Layer    Maximum-Head-Change  Column Row Layer    Maximum-Flux-Residual          L2-NORM 
          0                61           1            53    1    37      -0.2801142199E-04      61    1   27        -0.1834586281E-04      0.2362082391E-03
          0                62           1            49    1    37      -0.1833604181E-04      61    1   27        -0.2059949918E-04      0.2278082308E-03
          0                63           1            53    1    37      -0.2558970877E-04      61    1   27        -0.1699420723E-04      0.2190817672E-03
          0                64           1            50    1    38      -0.1716698415E-04      61    1   27        -0.1900633757E-04      0.2113256802E-03
          0                65           1            53    1    37      -0.2337085371E-04      61    1   27        -0.1575283481E-04      0.2032779769E-03
          0                66           1            50    1    38      -0.1611094912E-04      61    1   27        -0.1753863909E-04      0.1961111709E-03
          0                67           1            53    1    37      -0.2134253251E-04      61    1   27        -0.1461137590E-04      0.1886872042E-03
          0                68           1            50    1    38      -0.1513308338E-04      61    1   27        -0.1618759424E-04      0.1820596576E-03
          0                69           1            47    1    39      -0.1950281104E-04      61    1   27        -0.1356048602E-04      0.1752082641E-03
          0                70           1            50    1    38      -0.1422554172E-04      61    1   27        -0.1494455381E-04      0.1690743454E-03
                                                   Max.-Head-Change                         Max.-Flux-Residual
  Residual-Control   Outer-Iter.   Inner-Iter.     Column Row Layer    Maximum-Head-Change  Column Row Layer    Maximum-Flux-Residual          L2-NORM 
          0                71           1            47    1    39      -0.1784775613E-04      61    1   27        -0.1259176983E-04      0.1627482023E-03
          0                72           1            50    1    38      -0.1338135031E-04      61    1   27        -0.1380115171E-04      0.1570664056E-03
          0                73           1            47    1    39      -0.1633728206E-04      61    1   27        -0.1169770202E-04      0.1512219435E-03
          0                74           1            50    1    38      -0.1259433875E-04      61    1   27        -0.1274940468E-04      0.1459545974E-03
          0                75           1            47    1    39      -0.1495977705E-04      61    1   27        -0.1087154648E-04      0.1405518586E-03
          0                76           1            50    1    38      -0.1185906878E-04      61    1   27        -0.1178178429E-04      0.1356648236E-03
          0                77           1            47    1    39      -0.1370406299E-04      61    1   27        -0.1010727732E-04      0.1306672758E-03
          0                78           1            51    1    39      -0.1117550141E-04      61    1   27        -0.1089126074E-04      0.1261296389E-03
          0                79           1            47    1    39      -0.1255953951E-04      61    1   27        -0.9399504137E-05      0.1215039601E-03
          0                80           1            51    1    39      -0.1053533323E-04      61    1   27        -0.1007132219E-04      0.1172877358E-03
                                                   Max.-Head-Change                         Max.-Flux-Residual
  Residual-Control   Outer-Iter.   Inner-Iter.     Column Row Layer    Maximum-Head-Change  Column Row Layer    Maximum-Flux-Residual          L2-NORM 
          0                81           1            47    1    39      -0.1151627341E-04      61    1   27        -0.8743401992E-05      0.1130035815E-03
          0                82           1            51    1    39      -0.9933034587E-05      61    1   27        -0.9315974992E-05      0.1090834284E-03
          0                83           1            47    1    39      -0.1056504734E-04      49    1   27        -0.8137610934E-05      0.1051131929E-03
          0                84           1            51    1    39      -0.9365604624E-05      61    1   27        -0.8619729215E-05      0.1014661449E-03

    ------------------------------------------------
       NWT REQUIRED           84 OUTER ITERATIONS 
       AND A TOTAL OF         89 INNER ITERATIONS.
    ------------------------------------------------

 OUTPUT CONTROL FOR STRESS PERIOD    2   TIME STEP   10
    PRINT BUDGET
    SAVE HEAD FOR ALL LAYERS
    SAVE DRAWDOWN FOR ALL LAYERS
    SAVE BUDGET
 UBDSV1 SAVING "         STORAGE" ON UNIT  40 AT TIME STEP 10, STRESS PERIOD   2
 UBDSV2 SAVING "   CONSTANT HEAD" ON UNIT  40 AT TIME STEP 10, STRESS PERIOD   2
 UBDSV1 SAVING "FLOW RIGHT FACE " ON UNIT  40 AT TIME STEP 10, STRESS PERIOD   2
 UBDSV1 SAVING "FLOW LOWER FACE " ON UNIT  40 AT TIME STEP 10, STRESS PERIOD   2
 UBDSV4 SAVING "          DRAINS" ON UNIT  40 AT TIME STEP 10, STRESS PERIOD   2
 UBDSV4 SAVING " HEAD DEP BOUNDS" ON UNIT  40 AT TIME STEP 10, STRESS PERIOD   2

 SAVING SATURATED THICKNESS AND FLOW TERMS ON UNIT  333 FOR MT3DMS
 BY THE LINK-MT3DMS PACKAGE V7 AT TIME STEP   10, STRESS PERIOD    2


 HEAD WILL BE SAVED ON UNIT    2 AT END OF TIME STEP   10, STRESS PERIOD    2

 DRAWDOWN WILL BE SAVED ON UNIT   12 AT END OF TIME STEP   10, STRESS PERIOD    2
1
  VOLUMETRIC BUDGET FOR ENTIRE MODEL AT END OF TIME STEP   10, STRESS PERIOD   2
  ------------------------------------------------------------------------------

     CUMULATIVE VOLUMES      L**3       RATES FOR THIS TIME STEP      L**3/T
     ------------------                 ------------------------

           IN:                                      IN:
           ---                                      ---
             STORAGE     =          66.6349               STORAGE     =       5.8209E-02
       CONSTANT HEAD     =           0.0000         CONSTANT HEAD     =           0.0000
              DRAINS     =           0.0000                DRAINS     =           0.0000
     HEAD DEP BOUNDS     =         478.3727       HEAD DEP BOUNDS     =          10.6710

                TOTAL IN =         545.0076                  TOTAL IN =          10.7292

          OUT:                                     OUT:
          ----                                     ----
             STORAGE     =       1.8961E-08               STORAGE     =       4.2587E-10
       CONSTANT HEAD     =           0.0000         CONSTANT HEAD     =           0.0000
              DRAINS     =         532.7863                DRAINS     =          10.7314
     HEAD DEP BOUNDS     =          12.2682       HEAD DEP BOUNDS     =           0.0000

               TOTAL OUT =         545.0544                 TOTAL OUT =          10.7314

                IN - OUT =      -4.6814E-02                  IN - OUT =      -2.2078E-03

     PERCENT DISCREPANCY =          -0.01         PERCENT DISCREPANCY =          -0.02






         TIME SUMMARY AT END OF TIME STEP   10 IN STRESS PERIOD    2
                    SECONDS     MINUTES      HOURS       DAYS        YEARS
                    -----------------------------------------------------------
   TIME STEP LENGTH  86400.      1440.0      24.000      1.0000     2.73785E-03
 STRESS PERIOD TIME 8.64000E+05  14400.      240.00      10.000     2.73785E-02
         TOTAL TIME 1.72800E+06  28800.      480.00      20.000     5.47570E-02
1
1
                            STRESS PERIOD NO.    3, LENGTH =   10.00000    
                            -----------------------------------------------

                              NUMBER OF TIME STEPS =    10

                               MULTIPLIER FOR DELT =     1.000

                            INITIAL TIME STEP SIZE =   1.000000    

 REUSING NON-PARAMETER DRAINS FROM LAST STRESS PERIOD

     75 DRAINS

 BOUND. NO. LAYER   ROW   COL     STAGE      CONDUCTANCE         IFACE           CONDFACT        CELLGRP         
 ----------------------------------------------------------------------------------------------------------------
      1      3      1     13       38.00          0.1000E+05       6.000           0.000          -1.000    
      2      4      1     13       38.00          0.1000E+05       6.000           0.000          -1.000    
      3      5      1     12       38.00          0.1000E+05       6.000           0.000          -1.000    
      4      6      1     12       38.00          0.1000E+05       6.000           0.000          -1.000    
      5      7      1     12       38.00          0.1000E+05       6.000           0.000          -1.000    
      6      8      1     11       38.00          0.1000E+05       6.000           0.000          -1.000    
      7      9      1     11       38.00          0.1000E+05       6.000           0.000          -1.000    
      8     10      1     11       38.00          0.1000E+05       6.000           0.000          -1.000    
      9     11      1     10       38.00          0.1000E+05       6.000           0.000          -1.000    
     10     12      1     10       38.00          0.1000E+05       6.000           0.000          -1.000    
     11     13      1     10       38.00          0.1000E+05       6.000           0.000          -1.000    
     12     14      1      9       38.00          0.1000E+05       6.000           0.000          -1.000    
     13     15      1      9       38.00          0.1000E+05       6.000           0.000          -1.000    
     14     16      1      9       38.00          0.1000E+05       6.000           0.000          -1.000    
     15     17      1      8       38.00          0.1000E+05       6.000           0.000          -1.000    
     16     18      1      8       38.00          0.1000E+05       6.000           0.000          -1.000    
     17     19      1      8       38.00          0.1000E+05       6.000           0.000          -1.000    
     18     20      1      7       38.00          0.1000E+05       6.000           0.000          -1.000    
     19     21      1      7       38.00          0.1000E+05       6.000           0.000          -1.000    
     20     22      1      7       38.00          0.1000E+05       6.000           0.000          -1.000    
     21     23      1      6       38.00          0.1000E+05       6.000           0.000          -1.000    
     22     24      1      6       38.00          0.1000E+05       6.000           0.000          -1.000    
     23     25      1      6       38.00          0.1000E+05       6.000           0.000          -1.000    
     24     26      1      5       38.00          0.1000E+05       6.000           0.000          -1.000    
     25     27      1      5       38.00          0.1000E+05       6.000           0.000          -1.000    
     26     28      1      5       38.00          0.1000E+05       6.000           0.000          -1.000    
     27     29      1      4       38.00          0.1000E+05       6.000           0.000          -1.000    
     28     30      1      4       38.00          0.1000E+05       6.000           0.000          -1.000    
     29     31      1      4       38.00          0.1000E+05       6.000           0.000          -1.000    
     30     32      1      3       38.00          0.1000E+05       6.000           0.000          -1.000    
     31     33      1      3       38.00          0.1000E+05       6.000           0.000          -1.000    
     32     34      1      3       38.00          0.1000E+05       6.000           0.000          -1.000    
     33     35      1      2       38.00          0.1000E+05       6.000           0.000          -1.000    
     34     36      1      2       38.00          0.1000E+05       6.000           0.000          -1.000    
     35     37      1      2       38.00          0.1000E+05       6.000           0.000          -1.000    
     36     38      1      1       38.00          0.1000E+05       6.000           0.000          -1.000    
     37     39      1      1       38.00          0.1000E+05       6.000           0.000          -1.000    
     38     40      1      1       38.00          0.1000E+05       6.000           0.000          -1.000    

     38 GHB CELLS
 
 SOLVING FOR HEAD 
                                                   Max.-Head-Change                         Max.-Flux-Residual
  Residual-Control   Outer-Iter.   Inner-Iter.     Column Row Layer    Maximum-Head-Change  Column Row Layer    Maximum-Flux-Residual          L2-NORM 
          0                 1          46            13    1     3       0.1678029034E+02      13    1    4         0.1678029059E+06      0.9969826959E+06
          0                 2          41            16    1     5       0.4346624185E+01      15    1   19        -0.2134928058E+02      0.1181550373E+03
          0                 3          16            22    1     1       0.1486395725E+01      16    1    5        -0.1728738420E+02      0.7913702849E+02
          0                 4          11            15    1     1       0.3789581335E+00      15    1    3         0.2595334304E+01      0.6608693027E+01
          0                 5           6            16    1     1      -0.1902031340E+00      16    1    3        -0.6942875481E+00      0.1088929075E+01
          0                 6           2            22    1     6       0.1713338886E-01      21    1    6        -0.1029711101E+00      0.1573972858E+00
          0                 7           1            21    1     1      -0.7552043546E-03      21    1    6        -0.4319632792E-02      0.7152730351E-02
          0                 8           1            30    1    10       0.3993620294E-03      20    1    6        -0.3183812841E-03      0.1567607180E-02
          0                 9           1            34    1    12       0.2491189041E-03      32    1   12         0.1488969743E-03      0.1175527975E-02
          0                10           1            30    1    10       0.1508847028E-03      21    1    9         0.1236546005E-03      0.9539892125E-03
                                                   Max.-Head-Change                         Max.-Flux-Residual
  Residual-Control   Outer-Iter.   Inner-Iter.     Column Row Layer    Maximum-Head-Change  Column Row Layer    Maximum-Flux-Residual          L2-NORM 
          0                11           1            34    1    12       0.1257257186E-03      22    1    9        -0.7524640301E-04      0.8032626986E-03
          0                12           1            30    1    10       0.1068230102E-03      21    1    9         0.7850034075E-04      0.6850877156E-03
          0                13           1            34    1    12       0.7702528370E-04      32    1   12         0.5621357090E-04      0.5973150900E-03
          0                14           1            30    1    10       0.8300785785E-04      21    1    9         0.5038390952E-04      0.5185245983E-03
          0                15           1            34    1    12       0.5219926143E-04      32    1   12         0.4433332418E-04      0.4636212702E-03
          0                16           1            30    1    10       0.6606788108E-04      28    1   10         0.3778847397E-04      0.4046260739E-03
          0                17           1            34    1    12       0.3717923785E-04      28    1   10        -0.3802996287E-04      0.3671234887E-03
          0                18           1            30    1     5       0.5265060187E-04      28    1   10         0.2849052925E-04      0.3209095728E-03
          0                19           1            34    1    12       0.2739046083E-04      28    1   10        -0.3216844016E-04      0.2938877375E-03
          0                20           1            30    1     5       0.4212777599E-04      28    1   10         0.2166566958E-04      0.2573816877E-03
                                                   Max.-Head-Change                         Max.-Flux-Residual
  Residual-Control   Outer-Iter.   Inner-Iter.     Column Row Layer    Maximum-Head-Change  Column Row Layer    Maximum-Flux-Residual          L2-NORM 
          0                21           1            34    1    12       0.2069468321E-04      28    1   10        -0.2679970214E-04      0.2371887478E-03
          0                22           1            30    1     5       0.3404177428E-04      28    1   10         0.1657814119E-04      0.2083533071E-03
          0                23           1            34    1    12       0.1594003095E-04      28    1   10        -0.2217238816E-04      0.1929106332E-03
          0                24           1            40    1    14       0.2811492856E-04      28    1   10         0.1270408816E-04      0.1701697472E-03
          0                25           1            34    1    12       0.1246664289E-04      28    1   10        -0.1829674250E-04      0.1582055890E-03
          0                26           1            40    1    14       0.2423220614E-04      28    1   10         0.9722472015E-05      0.1402769929E-03
          0                27           1            34    1    12       0.9878831476E-05      28    1   10        -0.1508141443E-04      0.1309785641E-03
          0                28           1            40    1    14       0.2116467524E-04      29    1   27         0.7858707221E-05      0.1168152004E-03
          0                29           1            34    1    12       0.7928771040E-05      28    1   10        -0.1238344993E-04      0.1096253622E-03

    ------------------------------------------------
       NWT REQUIRED           29 OUTER ITERATIONS 
       AND A TOTAL OF        145 INNER ITERATIONS.
    ------------------------------------------------

 OUTPUT CONTROL FOR STRESS PERIOD    3   TIME STEP    1
    PRINT BUDGET
    SAVE HEAD FOR ALL LAYERS
    SAVE DRAWDOWN FOR ALL LAYERS
    SAVE BUDGET
 UBDSV1 SAVING "         STORAGE" ON UNIT  40 AT TIME STEP  1, STRESS PERIOD   3
 UBDSV2 SAVING "   CONSTANT HEAD" ON UNIT  40 AT TIME STEP  1, STRESS PERIOD   3
 UBDSV1 SAVING "FLOW RIGHT FACE " ON UNIT  40 AT TIME STEP  1, STRESS PERIOD   3
 UBDSV1 SAVING "FLOW LOWER FACE " ON UNIT  40 AT TIME STEP  1, STRESS PERIOD   3
 UBDSV4 SAVING "          DRAINS" ON UNIT  40 AT TIME STEP  1, STRESS PERIOD   3
 UBDSV4 SAVING " HEAD DEP BOUNDS" ON UNIT  40 AT TIME STEP  1, STRESS PERIOD   3

 SAVING SATURATED THICKNESS AND FLOW TERMS ON UNIT  333 FOR MT3DMS
 BY THE LINK-MT3DMS PACKAGE V7 AT TIME STEP    1, STRESS PERIOD    3


 HEAD WILL BE SAVED ON UNIT    2 AT END OF TIME STEP    1, STRESS PERIOD    3

 DRAWDOWN WILL BE SAVED ON UNIT   12 AT END OF TIME STEP    1, STRESS PERIOD    3
1
  VOLUMETRIC BUDGET FOR ENTIRE MODEL AT END OF TIME STEP    1, STRESS PERIOD   3
  ------------------------------------------------------------------------------

     CUMULATIVE VOLUMES      L**3       RATES FOR THIS TIME STEP      L**3/T
     ------------------                 ------------------------

           IN:                                      IN:
           ---                                      ---
             STORAGE     =          66.6349               STORAGE     =           0.0000
       CONSTANT HEAD     =           0.0000         CONSTANT HEAD     =           0.0000
              DRAINS     =           0.0000                DRAINS     =           0.0000
     HEAD DEP BOUNDS     =         545.9830       HEAD DEP BOUNDS     =          67.6103

                TOTAL IN =         612.6179                  TOTAL IN =          67.6103

          OUT:                                     OUT:
          ----                                     ----
             STORAGE     =          47.3361               STORAGE     =          47.3361
       CONSTANT HEAD     =           0.0000         CONSTANT HEAD     =           0.0000
              DRAINS     =         553.0584                DRAINS     =          20.2721
     HEAD DEP BOUNDS     =          12.2682       HEAD DEP BOUNDS     =           0.0000

               TOTAL OUT =         612.6627                 TOTAL OUT =          67.6083

                IN - OUT =      -4.4800E-02                  IN - OUT =       1.9989E-03

     PERCENT DISCREPANCY =          -0.01         PERCENT DISCREPANCY =           0.00






         TIME SUMMARY AT END OF TIME STEP    1 IN STRESS PERIOD    3
                    SECONDS     MINUTES      HOURS       DAYS        YEARS
                    -----------------------------------------------------------
   TIME STEP LENGTH  86400.      1440.0      24.000      1.0000     2.73785E-03
 STRESS PERIOD TIME  86400.      1440.0      24.000      1.0000     2.73785E-03
         TOTAL TIME 1.81440E+06  30240.      504.00      21.000     5.74949E-02
1
 
 SOLVING FOR HEAD 
                                                   Max.-Head-Change                         Max.-Flux-Residual
  Residual-Control   Outer-Iter.   Inner-Iter.     Column Row Layer    Maximum-Head-Change  Column Row Layer    Maximum-Flux-Residual          L2-NORM 
          0                 1          31            40    1    10       0.4251334523E+01      13    1    4         0.8167799207E-01      0.1890537190E+01
          0                 2          26            60    1    21      -0.1982185317E+01      40    1   14        -0.1519445603E+02      0.7965836744E+02
          0                 3          16            30    1     7      -0.6669640249E+00      40    1   11        -0.2972235640E+01      0.8297573531E+01
          0                 4           6            40    1    11      -0.4041877232E+00      40    1   11        -0.1233764587E+01      0.2149837853E+01
          0                 5           2            40    1    10      -0.1821763655E-01      44    1   13        -0.4756573469E-01      0.1334040118E+00
          0                 6           1            40    1    11      -0.9052306077E-03      28    1    8        -0.6054684409E-02      0.1066609301E-01
          0                 7           1            42    1    11      -0.5840575628E-03      28    1    8        -0.6257693286E-03      0.4151445687E-02
          0                 8           1            45    1    13      -0.6013359516E-03      35    1   15        -0.3703482209E-03      0.3901219230E-02
          0                 9           1            45    1    13      -0.3803641161E-03      28    1    8        -0.4039575312E-03      0.3716529128E-02
          0                10           1            45    1    13      -0.4594133627E-03      35    1   15        -0.2689589386E-03      0.3428001538E-02
                                                   Max.-Head-Change                         Max.-Flux-Residual
  Residual-Control   Outer-Iter.   Inner-Iter.     Column Row Layer    Maximum-Head-Change  Column Row Layer    Maximum-Flux-Residual          L2-NORM 
          0                11           1            47    1    14      -0.2936350421E-03      28    1    8        -0.2912740303E-03      0.3290212429E-02
          0                12           1            45    1    13      -0.3702437621E-03      42    1   16        -0.2346073033E-03      0.3051446356E-02
          0                13           1            45    1    13      -0.2456331627E-03      49    1   19        -0.2471231189E-03      0.2956371960E-02
          0                14           1            45    1    13      -0.3241363175E-03      42    1   16        -0.2121382243E-03      0.2748111451E-02
          0                15           1            45    1    13      -0.2152571987E-03      49    1   19        -0.2236329238E-03      0.2673604039E-02
          0                16           1            42    1    40      -0.2916589035E-03      42    1   16        -0.1890591775E-03      0.2483633458E-02
          0                17           1            45    1    13      -0.1912880999E-03      49    1   19        -0.2013555215E-03      0.2418772275E-02
          0                18           1            42    1    40      -0.2626758566E-03      42    1   16        -0.1685569480E-03      0.2246953693E-02
          0                19           1            45    1    13      -0.1713080819E-03      49    1   19        -0.1808713887E-03      0.2187736425E-02
          0                20           1            41    1    39      -0.2341307726E-03      42    1   16        -0.1504113798E-03      0.2035001943E-02
                                                   Max.-Head-Change                         Max.-Flux-Residual
  Residual-Control   Outer-Iter.   Inner-Iter.     Column Row Layer    Maximum-Head-Change  Column Row Layer    Maximum-Flux-Residual          L2-NORM 
          0                21           1            45    1    13      -0.1543357088E-03      49    1   19        -0.1625011625E-03      0.1979974862E-02
          0                22           1            40    1    40      -0.2080048002E-03      42    1   16        -0.1342119252E-03      0.1845226116E-02
          0                23           1            45    1    13      -0.1396885272E-03      49    1   19        -0.1461486220E-03      0.1793755660E-02
          0                24           1            40    1    40      -0.1846762484E-03      42    1   16        -0.1196812569E-03      0.1675087943E-02
          0                25           1            45    1    13      -0.1268669400E-03      49    1   19        -0.1315965257E-03      0.1626832854E-02
          0                26           1            40    1    40      -0.1640669737E-03      42    1   16        -0.1066237288E-03      0.1522259341E-02
          0                27           1            45    1    13      -0.1155129345E-03      49    1   19        -0.1186222024E-03      0.1476996444E-02
          0                28           1            40    1    40      -0.1459575157E-03      42    1   16        -0.9488858254E-04      0.1384691957E-02
          0                29           1            45    1    13      -0.1053697226E-03      49    1   19        -0.1070269355E-03      0.1342248912E-02
          0                30           1            39    1    39      -0.1300933123E-03      37    1   19        -0.8458373117E-04      0.1260611363E-02
                                                   Max.-Head-Change                         Max.-Flux-Residual
  Residual-Control   Outer-Iter.   Inner-Iter.     Column Row Layer    Maximum-Head-Change  Column Row Layer    Maximum-Flux-Residual          L2-NORM 
          0                31           1            45    1    13      -0.9624922807E-04      49    1   19        -0.9664026871E-04      0.1220838574E-02
          0                32           1            39    1    39      -0.1161784112E-03      37    1   19        -0.7743606000E-04      0.1148486736E-02
          0                33           1            45    1    13      -0.8800938450E-04      49    1   19        -0.8731745535E-04      0.1111245486E-02
          0                34           1            39    1    39      -0.1039356976E-03      37    1   19        -0.7077919921E-04      0.1046996177E-02
          0                35           1            45    1    13      -0.8053923960E-04      49    1   19        -0.7893541442E-04      0.1012153828E-02
          0                36           1            39    1    39      -0.9314226732E-04      37    1   19        -0.6458694932E-04      0.9549945568E-03
          0                37           1            45    1    13      -0.7374937727E-04      49    1   19        -0.7138885672E-04      0.9224228443E-03
          0                38           1            39    1    39      -0.8360489264E-04      37    1   19        -0.5883604138E-04      0.8714857875E-03
          0                39           1            45    1    13      -0.6756575857E-04      49    1   19        -0.6458703322E-04      0.8410604296E-03
          0                40           1            39    1    39      -0.7515766986E-04      41    1   27        -0.5365582436E-04      0.7955995552E-03
                                                   Max.-Head-Change                         Max.-Flux-Residual
  Residual-Control   Outer-Iter.   Inner-Iter.     Column Row Layer    Maximum-Head-Change  Column Row Layer    Maximum-Flux-Residual          L2-NORM 
          0                41           1            45    1    13      -0.6192571449E-04      49    1   19        -0.5845114470E-04      0.7672003872E-03
          0                42           1            39    1    39      -0.6765877499E-04      41    1   27        -0.4933889065E-04      0.7265720219E-03
          0                43           1            45    1    13      -0.5677527381E-04      49    1   19        -0.5291231381E-04      0.7000832882E-03
          0                44           1            39    1    39      -0.6098714487E-04      41    1   27        -0.4533768444E-04      0.6637298445E-03
          0                45           1            45    1    13      -0.5206732818E-04      49    1   19        -0.4790999634E-04      0.6390405006E-03
          0                46           1            39    1    39      -0.5503939874E-04      41    1   27        -0.4162729843E-04      0.6064769373E-03
          0                47           1            45    1    13      -0.4776033744E-04      49    1   19        -0.4339071646E-04      0.5834808951E-03
          0                48           1            39    1    39      -0.4972710919E-04      33    1   27        -0.3834540317E-04      0.5542834859E-03
          0                49           1            45    1    13      -0.4381737930E-04      49    1   19        -0.3930703991E-04      0.5328797750E-03
          0                50           1            38    1    36      -0.4497470023E-04      33    1   27        -0.3530428654E-04      0.5066768067E-03
                                                   Max.-Head-Change                         Max.-Flux-Residual
  Residual-Control   Outer-Iter.   Inner-Iter.     Column Row Layer    Maximum-Head-Change  Column Row Layer    Maximum-Flux-Residual          L2-NORM 
          0                51           1            45    1    13      -0.4020544057E-04      49    1   19        -0.3561671846E-04      0.4867696449E-03
          0                52           1            38    1    36      -0.4076305327E-04      33    1   27        -0.3245386793E-04      0.4632337348E-03
          0                53           1            45    1    13      -0.3689486285E-04      49    1   19        -0.3228196493E-04      0.4447324940E-03
          0                54           1            45    1    13      -0.3701053925E-04      33    1   27        -0.2978510673E-04      0.4235742623E-03
          0                55           1            40    1    32      -0.3398301374E-04      49    1   19        -0.2926883150E-04      0.4063933476E-03
          0                56           1            45    1    13      -0.3363910126E-04      33    1   27        -0.2729037956E-04      0.3873562214E-03
          0                57           1            40    1    32      -0.3134334827E-04      49    1   19        -0.2654667995E-04      0.3714148521E-03
          0                58           1            45    1    13      -0.3058854783E-04      33    1   27        -0.2496314173E-04      0.3542708181E-03
          0                59           1            40    1    32      -0.2888631629E-04      37    1   27        -0.2414959738E-04      0.3394927408E-03
          0                60           1            45    1    13      -0.2782686861E-04      33    1   27        -0.2279757345E-04      0.3240388594E-03
                                                   Max.-Head-Change                         Max.-Flux-Residual
  Residual-Control   Outer-Iter.   Inner-Iter.     Column Row Layer    Maximum-Head-Change  Column Row Layer    Maximum-Flux-Residual          L2-NORM 
          0                61           1            40    1    32      -0.2660054353E-04      37    1   27        -0.2196770470E-04      0.3103520115E-03
          0                62           1            45    1    13      -0.2532561176E-04      33    1   27        -0.2078821876E-04      0.2964075533E-03
          0                63           1            40    1    32      -0.2447577104E-04      37    1   27        -0.1996682013E-04      0.2837436997E-03
          0                64           1            45    1    13      -0.2305931144E-04      33    1   27        -0.1892964630E-04      0.2711477449E-03
          0                65           1            40    1    32      -0.2250264987E-04      37    1   27        -0.1813624655E-04      0.2594421305E-03
          0                66           1            45    1    13      -0.2100505708E-04      33    1   27        -0.1721616366E-04      0.2480515210E-03
          0                67           1            40    1    32      -0.2067253187E-04      37    1   27        -0.1646524336E-04      0.2372425523E-03
          0                68           1            38    1    36      -0.1914573390E-04      33    1   27        -0.1564161730E-04      0.2269300907E-03
          0                69           1            40    1    32      -0.1897729336E-04      37    1   27        -0.1494303976E-04      0.2169590784E-03
          0                70           1            38    1    36      -0.1747558294E-04      33    1   27        -0.1419929981E-04      0.2076119046E-03
                                                   Max.-Head-Change                         Max.-Flux-Residual
  Residual-Control   Outer-Iter.   Inner-Iter.     Column Row Layer    Maximum-Head-Change  Column Row Layer    Maximum-Flux-Residual          L2-NORM 
          0                71           1            40    1    32      -0.1740918692E-04      49    1   19        -0.1359128638E-04      0.1984228699E-03
          0                72           1            38    1    36      -0.1595965113E-04      49    1   19        -0.1289325334E-04      0.1899409642E-03
          0                73           1            40    1    32      -0.1596073915E-04      49    1   19        -0.1237919352E-04      0.1814805103E-03
          0                74           1            38    1    36      -0.1458213167E-04      49    1   19        -0.1184214230E-04      0.1737753058E-03
          0                75           1            41    1    33      -0.1462481763E-04      49    1   19        -0.1128119442E-04      0.1659925451E-03
          0                76           1            38    1    36      -0.1332902898E-04      49    1   19        -0.1087154254E-04      0.1589856363E-03
          0                77           1            35    1    37      -0.1340535283E-04      49    1   19        -0.1028571731E-04      0.1518321617E-03
          0                78           1            38    1    36      -0.1218795037E-04      49    1   19        -0.9975896745E-05      0.1454541107E-03
          0                79           1            35    1    37      -0.1229169559E-04      49    1   19        -0.9382412685E-05      0.1388839884E-03
          0                80           1            38    1    36      -0.1114791646E-04      49    1   19        -0.9150039347E-05      0.1330732384E-03
                                                   Max.-Head-Change                         Max.-Flux-Residual
  Residual-Control   Outer-Iter.   Inner-Iter.     Column Row Layer    Maximum-Head-Change  Column Row Layer    Maximum-Flux-Residual          L2-NORM 
          0                81           1            35    1    37      -0.1126582937E-04      49    1   19        -0.8562043945E-05      0.1270430119E-03
          0                82           1            38    1    36      -0.1019918999E-04      49    1   19        -0.8389131580E-05      0.1217449076E-03
          0                83           1            35    1    37      -0.1032175872E-04      49    1   19        -0.7816377234E-05      0.1162135918E-03
          0                84           1            38    1    36      -0.9333123755E-05      49    1   19        -0.7688616819E-05      0.1113795119E-03
          0                85           1            35    1    37      -0.9453734489E-05      49    1   19        -0.7138076938E-05      0.1063085826E-03
          0                86           1            38    1    36      -0.8542014882E-05      49    1   19        -0.7044192472E-05      0.1018951683E-03

    ------------------------------------------------
       NWT REQUIRED           86 OUTER ITERATIONS 
       AND A TOTAL OF        162 INNER ITERATIONS.
    ------------------------------------------------

 OUTPUT CONTROL FOR STRESS PERIOD    3   TIME STEP    2
    PRINT BUDGET
    SAVE HEAD FOR ALL LAYERS
    SAVE DRAWDOWN FOR ALL LAYERS
    SAVE BUDGET
 UBDSV1 SAVING "         STORAGE" ON UNIT  40 AT TIME STEP  2, STRESS PERIOD   3
 UBDSV2 SAVING "   CONSTANT HEAD" ON UNIT  40 AT TIME STEP  2, STRESS PERIOD   3
 UBDSV1 SAVING "FLOW RIGHT FACE " ON UNIT  40 AT TIME STEP  2, STRESS PERIOD   3
 UBDSV1 SAVING "FLOW LOWER FACE " ON UNIT  40 AT TIME STEP  2, STRESS PERIOD   3
 UBDSV4 SAVING "          DRAINS" ON UNIT  40 AT TIME STEP  2, STRESS PERIOD   3
 UBDSV4 SAVING " HEAD DEP BOUNDS" ON UNIT  40 AT TIME STEP  2, STRESS PERIOD   3

 SAVING SATURATED THICKNESS AND FLOW TERMS ON UNIT  333 FOR MT3DMS
 BY THE LINK-MT3DMS PACKAGE V7 AT TIME STEP    2, STRESS PERIOD    3


 HEAD WILL BE SAVED ON UNIT    2 AT END OF TIME STEP    2, STRESS PERIOD    3

 DRAWDOWN WILL BE SAVED ON UNIT   12 AT END OF TIME STEP    2, STRESS PERIOD    3
1
  VOLUMETRIC BUDGET FOR ENTIRE MODEL AT END OF TIME STEP    2, STRESS PERIOD   3
  ------------------------------------------------------------------------------

     CUMULATIVE VOLUMES      L**3       RATES FOR THIS TIME STEP      L**3/T
     ------------------                 ------------------------

           IN:                                      IN:
           ---                                      ---
             STORAGE     =          66.6349               STORAGE     =           0.0000
       CONSTANT HEAD     =           0.0000         CONSTANT HEAD     =           0.0000
              DRAINS     =           0.0000                DRAINS     =           0.0000
     HEAD DEP BOUNDS     =         589.3490       HEAD DEP BOUNDS     =          43.3660

                TOTAL IN =         655.9839                  TOTAL IN =          43.3660

          OUT:                                     OUT:
          ----                                     ----
             STORAGE     =          57.1378               STORAGE     =           9.8017
       CONSTANT HEAD     =           0.0000         CONSTANT HEAD     =           0.0000
              DRAINS     =         586.6253                DRAINS     =          33.5669
     HEAD DEP BOUNDS     =          12.2682       HEAD DEP BOUNDS     =           0.0000

               TOTAL OUT =         656.0313                 TOTAL OUT =          43.3686

                IN - OUT =      -4.7424E-02                  IN - OUT =      -2.5749E-03

     PERCENT DISCREPANCY =          -0.01         PERCENT DISCREPANCY =          -0.01






         TIME SUMMARY AT END OF TIME STEP    2 IN STRESS PERIOD    3
                    SECONDS     MINUTES      HOURS       DAYS        YEARS
                    -----------------------------------------------------------
   TIME STEP LENGTH  86400.      1440.0      24.000      1.0000     2.73785E-03
 STRESS PERIOD TIME 1.72800E+05  2880.0      48.000      2.0000     5.47570E-03
         TOTAL TIME 1.90080E+06  31680.      528.00      22.000     6.02327E-02
1
 
 SOLVING FOR HEAD 
                                                   Max.-Head-Change                         Max.-Flux-Residual
  Residual-Control   Outer-Iter.   Inner-Iter.     Column Row Layer    Maximum-Head-Change  Column Row Layer    Maximum-Flux-Residual          L2-NORM 
          0                 1          16            45    1    13       0.1044762141E+01      46    1   15         0.8027772070E-01      0.7944044167E+00
          0                 2          16            47    1    14      -0.2801590356E+00      47    1   14        -0.3533342217E+01      0.8939878121E+01
          0                 3           6            48    1    14       0.5288733058E-01      47    1   14        -0.4762784448E+00      0.1065687896E+01
          0                 4           2            46    1    13       0.2473686043E-02      46    1   13         0.2134113597E-01      0.4984808391E-01
          0                 5           1            45    1    13      -0.2036261700E-03      46    1   13         0.1111118193E-02      0.3595623048E-02
          0                 6           1            38    1     9      -0.8013355614E-03      46    1   14        -0.2903553954E-03      0.2760985467E-02
          0                 7           1            46    1    13      -0.1618367237E-03      47    1   16        -0.3077539512E-03      0.2495130603E-02
          0                 8           1            36    1    40      -0.3069913592E-03      46    1   14        -0.1826332773E-03      0.2249376728E-02
          0                 9           1            44    1    12      -0.1453921424E-03      45    1   17        -0.1839160302E-03      0.2116369340E-02
          0                10           1            36    1    38      -0.2389229239E-03      42    1   16        -0.1451312598E-03      0.1987949522E-02
                                                   Max.-Head-Change                         Max.-Flux-Residual
  Residual-Control   Outer-Iter.   Inner-Iter.     Column Row Layer    Maximum-Head-Change  Column Row Layer    Maximum-Flux-Residual          L2-NORM 
          0                11           1            36    1    38      -0.1293223733E-03      45    1   17        -0.1544855185E-03      0.1880813455E-02
          0                12           1            36    1    38      -0.1997091852E-03      42    1   16        -0.1325654986E-03      0.1776777542E-02
          0                13           1            37    1    39      -0.1218570193E-03      46    1   16        -0.1286608608E-03      0.1684681990E-02
          0                14           1            36    1    40      -0.1686385038E-03      42    1   16        -0.1210008219E-03      0.1595573041E-02
          0                15           1            37    1    39      -0.1151727021E-03      46    1   14        -0.1106760094E-03      0.1514535035E-02
          0                16           1            36    1    40      -0.1435253083E-03      42    1   16        -0.1103737190E-03      0.1437314041E-02
          0                17           1            37    1    39      -0.1088954291E-03      46    1   14        -0.1004910507E-03      0.1364966833E-02
          0                18           1            36    1    40      -0.1231530900E-03      42    1   16        -0.1004828519E-03      0.1297389679E-02
          0                19           1            38    1    38      -0.1027633240E-03      46    1   14        -0.9116755257E-04      0.1232184188E-02
          0                20           1            36    1    40      -0.1065447238E-03      42    1   16        -0.9118286945E-04      0.1172523715E-02
                                                   Max.-Head-Change                         Max.-Flux-Residual
  Residual-Control   Outer-Iter.   Inner-Iter.     Column Row Layer    Maximum-Head-Change  Column Row Layer    Maximum-Flux-Residual          L2-NORM 
          0                21           1            38    1    38      -0.9666690303E-04      46    1   14        -0.8271352468E-04      0.1113399860E-02
          0                22           1            36    1    40      -0.9288556256E-04      42    1   16        -0.8240107636E-04      0.1060338571E-02
          0                23           1            38    1    38      -0.9050975304E-04      46    1   14        -0.7504887668E-04      0.1006549848E-02
          0                24           1            36    1    40      -0.8152821466E-04      42    1   16        -0.7411790745E-04      0.9590875949E-03
          0                25           1            38    1    38      -0.8431091932E-04      46    1   14        -0.6808429447E-04      0.9100872975E-03
          0                26           1            36    1    40      -0.7197411846E-04      42    1   16        -0.6634344962E-04      0.8674572085E-03
          0                27           1            38    1    38      -0.7813303773E-04      46    1   14        -0.6174147103E-04      0.8228215378E-03
          0                28           1            36    1    40      -0.6384470756E-04      42    1   16        -0.5909866113E-04      0.7844228300E-03
          0                29           1            38    1    38      -0.7205813993E-04      46    1   14        -0.5595539093E-04      0.7438001581E-03
          0                30           1            36    1    38      -0.5686501587E-04      37    1   21        -0.5400346686E-04      0.7091488508E-03
                                                   Max.-Head-Change                         Max.-Flux-Residual
  Residual-Control   Outer-Iter.   Inner-Iter.     Column Row Layer    Maximum-Head-Change  Column Row Layer    Maximum-Flux-Residual          L2-NORM 
          0                31           1            38    1    38      -0.6616906186E-04      46    1   14        -0.5067210205E-04      0.6722282972E-03
          0                32           1            36    1    38      -0.5081615612E-04      37    1   21        -0.4927276541E-04      0.6409229654E-03
          0                33           1            38    1    38      -0.6053722150E-04      46    1   14        -0.4584604815E-04      0.6074168175E-03
          0                34           1            36    1    38      -0.4552139061E-04      37    1   21        -0.4480441234E-04      0.5791156334E-03
          0                35           1            38    1    38      -0.5521633068E-04      46    1   14        -0.4143797653E-04      0.5487510304E-03
          0                36           1            36    1    38      -0.4085294891E-04      37    1   21        -0.4061069532E-04      0.5231567142E-03
          0                37           1            38    1    38      -0.5024076545E-04      46    1   14        -0.3741347112E-04      0.4956729236E-03
          0                38           1            36    1    38      -0.3671192463E-04      37    1   21        -0.3669815212E-04      0.4725229364E-03
          0                39           1            39    1    37      -0.4563931953E-04      46    1   14        -0.3374193759E-04      0.4476715405E-03
          0                40           1            36    1    38      -0.3302102799E-04      37    1   21        -0.3306772959E-04      0.4267316134E-03
                                                   Max.-Head-Change                         Max.-Flux-Residual
  Residual-Control   Outer-Iter.   Inner-Iter.     Column Row Layer    Maximum-Head-Change  Column Row Layer    Maximum-Flux-Residual          L2-NORM 
          0                41           1            39    1    37      -0.4141090461E-04      46    1   14        -0.3039587105E-04      0.4042778149E-03
          0                42           1            36    1    38      -0.2971917423E-04      37    1   21        -0.2971554719E-04      0.3853375328E-03
          0                43           1            39    1    37      -0.3753030099E-04      46    1   14        -0.2735029298E-04      0.3650615431E-03
          0                44           1            36    1    38      -0.2675742391E-04      37    1   21        -0.2663390197E-04      0.3479311694E-03
          0                45           1            39    1    37      -0.3398137477E-04      46    1   14        -0.2458230210E-04      0.3296291808E-03
          0                46           1            36    1    38      -0.2409593794E-04      37    1   21        -0.2381228160E-04      0.3141372306E-03
          0                47           1            39    1    37      -0.3074349967E-04      46    1   14        -0.2207071111E-04      0.2976218088E-03
          0                48           1            36    1    38      -0.2170170399E-04      37    1   21        -0.2123826678E-04      0.2836130931E-03
          0                49           1            39    1    37      -0.2779385493E-04      46    1   14        -0.1979576348E-04      0.2687130216E-03
          0                50           1            38    1    40      -0.1954907686E-04      37    1   21        -0.1889827459E-04      0.2560469900E-03
                                                   Max.-Head-Change                         Max.-Flux-Residual
  Residual-Control   Outer-Iter.   Inner-Iter.     Column Row Layer    Maximum-Head-Change  Column Row Layer    Maximum-Flux-Residual          L2-NORM 
          0                51           1            39    1    37      -0.2510910638E-04      46    1   14        -0.1773892336E-04      0.2426066716E-03
          0                52           1            37    1    37      -0.1763420511E-04      37    1   21        -0.1677813677E-04      0.2311559746E-03
          0                53           1            36    1    40      -0.2269631382E-04      46    1   14        -0.1588272946E-04      0.2190345221E-03
          0                54           1            37    1    37      -0.1592053630E-04      33    1   27        -0.1528019615E-04      0.2086837349E-03
          0                55           1            36    1    40      -0.2052021332E-04      46    1   14        -0.1421070453E-04      0.1977538709E-03
          0                56           1            37    1    37      -0.1437990533E-04      33    1   27        -0.1396129701E-04      0.1883983485E-03
          0                57           1            36    1    40      -0.1854237528E-04      37    1   27        -0.1281323793E-04      0.1785452171E-03
          0                58           1            37    1    37      -0.1299522204E-04      33    1   27        -0.1273578093E-04      0.1700900666E-03
          0                59           1            36    1    40      -0.1674407887E-04      37    1   27        -0.1161918183E-04      0.1612100309E-03
          0                60           1            37    1    37      -0.1175108076E-04      33    1   27        -0.1159814511E-04      0.1535691814E-03
                                                   Max.-Head-Change                         Max.-Flux-Residual
  Residual-Control   Outer-Iter.   Inner-Iter.     Column Row Layer    Maximum-Head-Change  Column Row Layer    Maximum-Flux-Residual          L2-NORM 
          0                61           1            36    1    40      -0.1510868858E-04      37    1   27        -0.1052647886E-04      0.1455686627E-03
          0                62           1            38    1    38      -0.1063934378E-04      33    1   27        -0.1054348743E-04      0.1386640272E-03
          0                63           1            36    1    40      -0.1362151155E-04      37    1   27        -0.9527913278E-05      0.1314584233E-03
          0                64           1            38    1    38      -0.9643143656E-05      33    1   27        -0.9567402060E-05      0.1252191456E-03
          0                65           1            36    1    40      -0.1226959287E-04      37    1   27        -0.8616673227E-05      0.1187318496E-03
          0                66           1            37    1    35      -0.8751690983E-05      33    1   27        -0.8665881040E-05      0.1130936292E-03
          0                67           1            36    1    40      -0.1104147267E-04      37    1   27        -0.7786321135E-05      0.1072551585E-03
          0                68           1            37    1    35      -0.7957992664E-05      33    1   27        -0.7835218327E-05      0.1021596497E-03

    ------------------------------------------------
       NWT REQUIRED           68 OUTER ITERATIONS 
       AND A TOTAL OF        104 INNER ITERATIONS.
    ------------------------------------------------

 OUTPUT CONTROL FOR STRESS PERIOD    3   TIME STEP    3
    PRINT BUDGET
    SAVE HEAD FOR ALL LAYERS
    SAVE DRAWDOWN FOR ALL LAYERS
    SAVE BUDGET
 UBDSV1 SAVING "         STORAGE" ON UNIT  40 AT TIME STEP  3, STRESS PERIOD   3
 UBDSV2 SAVING "   CONSTANT HEAD" ON UNIT  40 AT TIME STEP  3, STRESS PERIOD   3
 UBDSV1 SAVING "FLOW RIGHT FACE " ON UNIT  40 AT TIME STEP  3, STRESS PERIOD   3
 UBDSV1 SAVING "FLOW LOWER FACE " ON UNIT  40 AT TIME STEP  3, STRESS PERIOD   3
 UBDSV4 SAVING "          DRAINS" ON UNIT  40 AT TIME STEP  3, STRESS PERIOD   3
 UBDSV4 SAVING " HEAD DEP BOUNDS" ON UNIT  40 AT TIME STEP  3, STRESS PERIOD   3

 SAVING SATURATED THICKNESS AND FLOW TERMS ON UNIT  333 FOR MT3DMS
 BY THE LINK-MT3DMS PACKAGE V7 AT TIME STEP    3, STRESS PERIOD    3


 HEAD WILL BE SAVED ON UNIT    2 AT END OF TIME STEP    3, STRESS PERIOD    3

 DRAWDOWN WILL BE SAVED ON UNIT   12 AT END OF TIME STEP    3, STRESS PERIOD    3
1
  VOLUMETRIC BUDGET FOR ENTIRE MODEL AT END OF TIME STEP    3, STRESS PERIOD   3
  ------------------------------------------------------------------------------

     CUMULATIVE VOLUMES      L**3       RATES FOR THIS TIME STEP      L**3/T
     ------------------                 ------------------------

           IN:                                      IN:
           ---                                      ---
             STORAGE     =          66.6349               STORAGE     =           0.0000
       CONSTANT HEAD     =           0.0000         CONSTANT HEAD     =           0.0000
              DRAINS     =           0.0000                DRAINS     =           0.0000
     HEAD DEP BOUNDS     =         629.9851       HEAD DEP BOUNDS     =          40.6361

                TOTAL IN =         696.6200                  TOTAL IN =          40.6361

          OUT:                                     OUT:
          ----                                     ----
             STORAGE     =          58.9893               STORAGE     =           1.8515
       CONSTANT HEAD     =           0.0000         CONSTANT HEAD     =           0.0000
              DRAINS     =         625.4125                DRAINS     =          38.7872
     HEAD DEP BOUNDS     =          12.2682       HEAD DEP BOUNDS     =           0.0000

               TOTAL OUT =         696.6700                 TOTAL OUT =          40.6387

                IN - OUT =      -5.0049E-02                  IN - OUT =      -2.6016E-03

     PERCENT DISCREPANCY =          -0.01         PERCENT DISCREPANCY =          -0.01






         TIME SUMMARY AT END OF TIME STEP    3 IN STRESS PERIOD    3
                    SECONDS     MINUTES      HOURS       DAYS        YEARS
                    -----------------------------------------------------------
   TIME STEP LENGTH  86400.      1440.0      24.000      1.0000     2.73785E-03
 STRESS PERIOD TIME 2.59200E+05  4320.0      72.000      3.0000     8.21355E-03
         TOTAL TIME 1.98720E+06  33120.      552.00      23.000     6.29706E-02
1
 
 SOLVING FOR HEAD 
                                                   Max.-Head-Change                         Max.-Flux-Residual
  Residual-Control   Outer-Iter.   Inner-Iter.     Column Row Layer    Maximum-Head-Change  Column Row Layer    Maximum-Flux-Residual          L2-NORM 
          0                 1          11            44    1    12       0.1967093071E+00      44    1   13         0.5438478070E-01      0.2483029552E+00
          0                 2           6            39    1    10       0.4113862639E-01      35    1    9        -0.3014676351E+00      0.8015858337E+00
          0                 3           2            32    1     7      -0.3260960089E-02      35    1    9        -0.2262873787E-01      0.5333610477E-01
          0                 4           1            32    1     7      -0.1911140688E-03      35    1    9        -0.7614749804E-03      0.2167057662E-02
          0                 5           1            33    1     8      -0.5513614287E-03      33    1    9        -0.1173047515E-03      0.1252126254E-02
          0                 6           1            44    1    12      -0.6244471752E-04      36    1   11        -0.3214444252E-03      0.9567404085E-03
          0                 7           1            60    1    40       0.9159731183E-04      60    1   36         0.4529613616E-04      0.5697653514E-03
          0                 8           1            59    1    39       0.4984508537E-04      30    1    8        -0.4268446580E-04      0.4822496654E-03
          0                 9           1            59    1    39       0.5193284118E-04      28    1   10        -0.3431381293E-04      0.4123999826E-03
          0                10           1            58    1    40       0.4634594723E-04      60    1   36         0.3004212385E-04      0.3628337928E-03
                                                   Max.-Head-Change                         Max.-Flux-Residual
  Residual-Control   Outer-Iter.   Inner-Iter.     Column Row Layer    Maximum-Head-Change  Column Row Layer    Maximum-Flux-Residual          L2-NORM 
          0                11           1            58    1    40       0.3378481084E-04      28    1   10        -0.2659732030E-04      0.3180324403E-03
          0                12           1            58    1    40       0.4290907279E-04      60    1   36         0.2374904608E-04      0.2802565034E-03
          0                13           1            58    1    40       0.2329588900E-04      60    1   36         0.2038521836E-04      0.2468607753E-03
          0                14           1            58    1    40       0.3847320870E-04      60    1   36         0.1858251193E-04      0.2166561802E-03
          0                15           1            58    1    40       0.1665818758E-04      60    1   36         0.1561107570E-04      0.1908981200E-03
          0                16           1            58    1    40       0.3274004002E-04      60    1   36         0.1434469701E-04      0.1666199450E-03
          0                17           1            58    1    40       0.1224771029E-04      60    1   36         0.1186869986E-04      0.1472558364E-03
          0                18           1            58    1    40       0.2597367524E-04      56    1   36         0.1095781948E-04      0.1280484625E-03
          0                19           1            58    1    40       0.9633663716E-05      56    1   36         0.9080221758E-05      0.1140624209E-03

    ------------------------------------------------
       NWT REQUIRED           19 OUTER ITERATIONS 
       AND A TOTAL OF         35 INNER ITERATIONS.
    ------------------------------------------------

 OUTPUT CONTROL FOR STRESS PERIOD    3   TIME STEP    4
    PRINT BUDGET
    SAVE HEAD FOR ALL LAYERS
    SAVE DRAWDOWN FOR ALL LAYERS
    SAVE BUDGET
 UBDSV1 SAVING "         STORAGE" ON UNIT  40 AT TIME STEP  4, STRESS PERIOD   3
 UBDSV2 SAVING "   CONSTANT HEAD" ON UNIT  40 AT TIME STEP  4, STRESS PERIOD   3
 UBDSV1 SAVING "FLOW RIGHT FACE " ON UNIT  40 AT TIME STEP  4, STRESS PERIOD   3
 UBDSV1 SAVING "FLOW LOWER FACE " ON UNIT  40 AT TIME STEP  4, STRESS PERIOD   3
 UBDSV4 SAVING "          DRAINS" ON UNIT  40 AT TIME STEP  4, STRESS PERIOD   3
 UBDSV4 SAVING " HEAD DEP BOUNDS" ON UNIT  40 AT TIME STEP  4, STRESS PERIOD   3

 SAVING SATURATED THICKNESS AND FLOW TERMS ON UNIT  333 FOR MT3DMS
 BY THE LINK-MT3DMS PACKAGE V7 AT TIME STEP    4, STRESS PERIOD    3


 HEAD WILL BE SAVED ON UNIT    2 AT END OF TIME STEP    4, STRESS PERIOD    3

 DRAWDOWN WILL BE SAVED ON UNIT   12 AT END OF TIME STEP    4, STRESS PERIOD    3
1
  VOLUMETRIC BUDGET FOR ENTIRE MODEL AT END OF TIME STEP    4, STRESS PERIOD   3
  ------------------------------------------------------------------------------

     CUMULATIVE VOLUMES      L**3       RATES FOR THIS TIME STEP      L**3/T
     ------------------                 ------------------------

           IN:                                      IN:
           ---                                      ---
             STORAGE     =          66.6349               STORAGE     =       4.2277E-10
       CONSTANT HEAD     =           0.0000         CONSTANT HEAD     =           0.0000
              DRAINS     =           0.0000                DRAINS     =           0.0000
     HEAD DEP BOUNDS     =         670.0925       HEAD DEP BOUNDS     =          40.1074

                TOTAL IN =         736.7274                  TOTAL IN =          40.1074

          OUT:                                     OUT:
          ----                                     ----
             STORAGE     =          59.3616               STORAGE     =           0.3723
       CONSTANT HEAD     =           0.0000         CONSTANT HEAD     =           0.0000
              DRAINS     =         665.1458                DRAINS     =          39.7332
     HEAD DEP BOUNDS     =          12.2682       HEAD DEP BOUNDS     =           0.0000

               TOTAL OUT =         736.7756                 TOTAL OUT =          40.1056

                IN - OUT =      -4.8157E-02                  IN - OUT =       1.7815E-03

     PERCENT DISCREPANCY =          -0.01         PERCENT DISCREPANCY =           0.00






         TIME SUMMARY AT END OF TIME STEP    4 IN STRESS PERIOD    3
                    SECONDS     MINUTES      HOURS       DAYS        YEARS
                    -----------------------------------------------------------
   TIME STEP LENGTH  86400.      1440.0      24.000      1.0000     2.73785E-03
 STRESS PERIOD TIME 3.45600E+05  5760.0      96.000      4.0000     1.09514E-02
         TOTAL TIME 2.07360E+06  34560.      576.00      24.000     6.57084E-02
1
 
 SOLVING FOR HEAD 
                                                   Max.-Head-Change                         Max.-Flux-Residual
  Residual-Control   Outer-Iter.   Inner-Iter.     Column Row Layer    Maximum-Head-Change  Column Row Layer    Maximum-Flux-Residual          L2-NORM 
          0                 1           6            42    1    11       0.4014655038E-01      46    1   13         0.1337940560E-01      0.5741838532E-01
          0                 2           2            24    1     4       0.2704576146E-02      29    1    8         0.1490358991E-01      0.2505720374E-01
          0                 3           1            35    1    39       0.4132602670E-03      27    1    9         0.7144939262E-03      0.5493974363E-02
          0                 4           1            35    1    39       0.5648290218E-03      30    1    8         0.4390906939E-03      0.5168782900E-02
          0                 5           1            35    1    39       0.4071819115E-03      27    1    9         0.5233059672E-03      0.4886580351E-02
          0                 6           1            35    1    39       0.4250523204E-03      30    1    8         0.4098246227E-03      0.4626548686E-02
          0                 7           1            35    1    39       0.4068203408E-03      28    1   10         0.3947752043E-03      0.4388734273E-02
          0                 8           1            35    1    39       0.3412969118E-03      30    1    8         0.3653307057E-03      0.4165692804E-02
          0                 9           1            35    1    39       0.4034818928E-03      28    1   10         0.3174078375E-03      0.3952773780E-02
          0                10           1            35    1    39       0.2838592434E-03      30    1    8         0.3245425403E-03      0.3753032330E-02
                                                   Max.-Head-Change                         Max.-Flux-Residual
  Residual-Control   Outer-Iter.   Inner-Iter.     Column Row Layer    Maximum-Head-Change  Column Row Layer    Maximum-Flux-Residual          L2-NORM 
          0                11           1            35    1    39       0.3957331038E-03      28    1   10         0.2604075590E-03      0.3557770717E-02
          0                12           1            35    1    39       0.2406402793E-03      30    1    8         0.2888147526E-03      0.3376011094E-02
          0                13           1            35    1    39       0.3835264070E-03      28    1   10         0.2164717367E-03      0.3195378351E-02
          0                14           1            35    1    39       0.2062145725E-03      30    1    8         0.2576334872E-03      0.3029068323E-02
          0                15           1            36    1    40       0.3674220552E-03      28    1   10         0.1816341992E-03      0.2861692401E-02
          0                16           1            36    1    40       0.1779164244E-03      30    1    8         0.2300584042E-03      0.2709416215E-02
          0                17           1            36    1    40       0.3481977052E-03      36    1   36         0.1594259928E-03      0.2554634481E-02
          0                18           1            36    1    40       0.1540318393E-03      30    1    8         0.2053164189E-03      0.2415471218E-02
          0                19           1            36    1    40       0.3264965942E-03      36    1   36         0.1419458034E-03      0.2272908565E-02
          0                20           1            36    1    40       0.1335903340E-03      30    1    8         0.1829093690E-03      0.2146155386E-02
                                                   Max.-Head-Change                         Max.-Flux-Residual
  Residual-Control   Outer-Iter.   Inner-Iter.     Column Row Layer    Maximum-Head-Change  Column Row Layer    Maximum-Flux-Residual          L2-NORM 
          0                21           1            36    1    40       0.3031508076E-03      36    1   36         0.1259274164E-03      0.2015512371E-02
          0                22           1            36    1    40       0.1159459342E-03      30    1    8         0.1625467478E-03      0.1900544702E-02
          0                23           1            36    1    40       0.2789530551E-03      36    1   36         0.1113355138E-03      0.1781488152E-02
          0                24           1            37    1    39       0.1006426167E-03      30    1    8         0.1440546748E-03      0.1677686880E-02
          0                25           1            36    1    40       0.2546087373E-03      36    1   36         0.9812157720E-04      0.1569799879E-02
          0                26           1            38    1    40       0.8734806313E-04      30    1    8         0.1273110481E-03      0.1476517868E-02
          0                27           1            37    1    39       0.2307454320E-03      36    1   36         0.8622273722E-04      0.1379286742E-02
          0                28           1            38    1    40       0.7577749968E-04      30    1    8         0.1122104819E-03      0.1295840131E-02
          0                29           1            38    1    40       0.2078036660E-03      36    1   36         0.7556384125E-04      0.1208663616E-02
          0                30           1            38    1    40       0.6567948398E-04      30    1    8         0.9864924806E-04      0.1134337967E-02
                                                   Max.-Head-Change                         Max.-Flux-Residual
  Residual-Control   Outer-Iter.   Inner-Iter.     Column Row Layer    Maximum-Head-Change  Column Row Layer    Maximum-Flux-Residual          L2-NORM 
          0                31           1            38    1    40       0.1860920906E-03      36    1   36         0.6606085117E-04      0.1056547955E-02
          0                32           1            38    1    40       0.5686971451E-04      30    1    8         0.8652080504E-04      0.9906119320E-03
          0                33           1            38    1    40       0.1658059219E-03      36    1   36         0.5762448967E-04      0.9214983745E-03
          0                34           1            38    1    40       0.4918963961E-04      30    1    8         0.7571601591E-04      0.8632198334E-03
          0                35           1            38    1    40       0.1470748733E-03      36    1   36         0.5016356704E-04      0.8020550924E-03
          0                36           1            38    1    40       0.4250108877E-04      30    1    8         0.6612502457E-04      0.7507163695E-03
          0                37           1            38    1    40       0.1299506144E-03      36    1   36         0.4358772719E-04      0.6967763948E-03
          0                38           1            38    1    40       0.3668269701E-04      30    1    8         0.5763944179E-04      0.6516870838E-03
          0                39           1            38    1    40       0.1144255048E-03      36    1   36         0.3780954995E-04      0.6042683073E-03
          0                40           1            38    1    40       0.3162740102E-04      30    1    8         0.5015428044E-04      0.5647748778E-03
                                                   Max.-Head-Change                         Max.-Flux-Residual
  Residual-Control   Outer-Iter.   Inner-Iter.     Column Row Layer    Maximum-Head-Change  Column Row Layer    Maximum-Flux-Residual          L2-NORM 
          0                41           1            38    1    40       0.1004491208E-03      36    1   36         0.3274604003E-04      0.5232066599E-03
          0                42           1            38    1    40       0.2724057584E-04      30    1    8         0.4356947761E-04      0.4886989397E-03
          0                43           1            38    1    40       0.8794203810E-04      36    1   36         0.2831959205E-04      0.4523519672E-03
          0                44           1            38    1    40       0.2343856200E-04      30    1    8         0.3779096858E-04      0.4222668380E-03
          0                45           1            38    1    40       0.7680683811E-04      36    1   36         0.2445852937E-04      0.3905581120E-03
          0                46           1            38    1    40       0.2014744225E-04      30    1    8         0.3273136011E-04      0.3643809312E-03
          0                47           1            38    1    40       0.6693643522E-04      36    1   36         0.2109731463E-04      0.3367760304E-03
          0                48           1            38    1    40       0.1730199080E-04      30    1    8         0.2831025679E-04      0.3140403250E-03
          0                49           1            38    1    40       0.5822032361E-04      36    1   36         0.1817652287E-04      0.2900536419E-03
          0                50           1            38    1    40       0.1484473672E-04      30    1    8         0.2445433017E-04      0.2703395292E-03
                                                   Max.-Head-Change                         Max.-Flux-Residual
  Residual-Control   Outer-Iter.   Inner-Iter.     Column Row Layer    Maximum-Head-Change  Column Row Layer    Maximum-Flux-Residual          L2-NORM 
          0                51           1            38    1    40       0.5054896292E-04      36    1   36         0.1564264389E-04      0.2495330271E-03
          0                52           1            38    1    40       0.1272513033E-04      30    1    8         0.2109717542E-04      0.2324647900E-03
          0                53           1            38    1    40       0.4381675080E-04      36    1   36         0.1344777385E-04      0.2144457625E-03
          0                54           1            38    1    40       0.1089878712E-04      30    1    8         0.1817902259E-04      0.1996888965E-03
          0                55           1            38    1    40       0.3792397101E-04      36    1   36         0.1154924163E-04      0.1841071132E-03
          0                56           1            38    1    40       0.9326803259E-05      30    1    8         0.1564635883E-04      0.1713650932E-03
          0                57           1            38    1    40       0.3277788406E-04      36    1   36         0.9909197445E-05      0.1579095858E-03
          0                58           1            38    1    40       0.7975138345E-05      30    1    8         0.1345147055E-04      0.1469205376E-03
          0                59           1            38    1    40       0.2829327587E-04      36    1   36         0.8494191690E-05      0.1353162609E-03
          0                60           1            36    1    40       0.6816546676E-05      30    1    8         0.1155198467E-04      0.1258496661E-03
                                                   Max.-Head-Change                         Max.-Flux-Residual
  Residual-Control   Outer-Iter.   Inner-Iter.     Column Row Layer    Maximum-Head-Change  Column Row Layer    Maximum-Flux-Residual          L2-NORM 
          0                61           1            38    1    40       0.2439258892E-04      36    1   36         0.7274758133E-05      0.1158541585E-03
          0                62           1            36    1    40       0.5823995416E-05      30    1    8         0.9910381493E-05      0.1077076822E-03

    ------------------------------------------------
       NWT REQUIRED           62 OUTER ITERATIONS 
       AND A TOTAL OF         68 INNER ITERATIONS.
    ------------------------------------------------

 OUTPUT CONTROL FOR STRESS PERIOD    3   TIME STEP    5
    PRINT BUDGET
    SAVE HEAD FOR ALL LAYERS
    SAVE DRAWDOWN FOR ALL LAYERS
    SAVE BUDGET
 UBDSV1 SAVING "         STORAGE" ON UNIT  40 AT TIME STEP  5, STRESS PERIOD   3
 UBDSV2 SAVING "   CONSTANT HEAD" ON UNIT  40 AT TIME STEP  5, STRESS PERIOD   3
 UBDSV1 SAVING "FLOW RIGHT FACE " ON UNIT  40 AT TIME STEP  5, STRESS PERIOD   3
 UBDSV1 SAVING "FLOW LOWER FACE " ON UNIT  40 AT TIME STEP  5, STRESS PERIOD   3
 UBDSV4 SAVING "          DRAINS" ON UNIT  40 AT TIME STEP  5, STRESS PERIOD   3
 UBDSV4 SAVING " HEAD DEP BOUNDS" ON UNIT  40 AT TIME STEP  5, STRESS PERIOD   3

 SAVING SATURATED THICKNESS AND FLOW TERMS ON UNIT  333 FOR MT3DMS
 BY THE LINK-MT3DMS PACKAGE V7 AT TIME STEP    5, STRESS PERIOD    3


 HEAD WILL BE SAVED ON UNIT    2 AT END OF TIME STEP    5, STRESS PERIOD    3

 DRAWDOWN WILL BE SAVED ON UNIT   12 AT END OF TIME STEP    5, STRESS PERIOD    3
1
  VOLUMETRIC BUDGET FOR ENTIRE MODEL AT END OF TIME STEP    5, STRESS PERIOD   3
  ------------------------------------------------------------------------------

     CUMULATIVE VOLUMES      L**3       RATES FOR THIS TIME STEP      L**3/T
     ------------------                 ------------------------

           IN:                                      IN:
           ---                                      ---
             STORAGE     =          66.6349               STORAGE     =       1.5582E-09
       CONSTANT HEAD     =           0.0000         CONSTANT HEAD     =           0.0000
              DRAINS     =           0.0000                DRAINS     =           0.0000
     HEAD DEP BOUNDS     =         710.0845       HEAD DEP BOUNDS     =          39.9921

                TOTAL IN =         776.7195                  TOTAL IN =          39.9921

          OUT:                                     OUT:
          ----                                     ----
             STORAGE     =          59.4417               STORAGE     =       8.0035E-02
       CONSTANT HEAD     =           0.0000         CONSTANT HEAD     =           0.0000
              DRAINS     =         705.0551                DRAINS     =          39.9094
     HEAD DEP BOUNDS     =          12.2682       HEAD DEP BOUNDS     =           0.0000

               TOTAL OUT =         776.7650                 TOTAL OUT =          39.9894

                IN - OUT =      -4.5471E-02                  IN - OUT =       2.6817E-03

     PERCENT DISCREPANCY =          -0.01         PERCENT DISCREPANCY =           0.01






         TIME SUMMARY AT END OF TIME STEP    5 IN STRESS PERIOD    3
                    SECONDS     MINUTES      HOURS       DAYS        YEARS
                    -----------------------------------------------------------
   TIME STEP LENGTH  86400.      1440.0      24.000      1.0000     2.73785E-03
 STRESS PERIOD TIME 4.32000E+05  7200.0      120.00      5.0000     1.36893E-02
         TOTAL TIME 2.16000E+06  36000.      600.00      25.000     6.84463E-02
1
 
 SOLVING FOR HEAD 
                                                   Max.-Head-Change                         Max.-Flux-Residual
  Residual-Control   Outer-Iter.   Inner-Iter.     Column Row Layer    Maximum-Head-Change  Column Row Layer    Maximum-Flux-Residual          L2-NORM 
          0                 1           5            42    1    11       0.8888533270E-02      42    1   12         0.2963584361E-02      0.1303216178E-01
          0                 2           1            41    1    12       0.2703450611E-03      41    1   12         0.2950501457E-02      0.4330450232E-02
          0                 3           1            30    1    28       0.2616017282E-03      29    1   27         0.1238116782E-03      0.1457145906E-02
          0                 4           1            35    1    39       0.9437422833E-04      39    1   13         0.1904013759E-03      0.1320678265E-02
          0                 5           1            35    1    39       0.1462908826E-03      43    1   13         0.9403988798E-04      0.1229764670E-02
          0                 6           1            39    1    10       0.9522087707E-04      39    1   13         0.1351075924E-03      0.1161618918E-02
          0                 7           1            35    1    39       0.1104494713E-03      43    1   13         0.9139763245E-04      0.1096733634E-02
          0                 8           1            39    1    10       0.9311054205E-04      39    1   13         0.9705168927E-04      0.1040136659E-02
          0                 9           1            35    1    39       0.8662955511E-04      38    1   16         0.8316110541E-04      0.9858552396E-03
          0                10           1            39    1    10       0.9099546368E-04      39    1   13         0.7450950073E-04      0.9358389792E-03
                                                   Max.-Head-Change                         Max.-Flux-Residual
  Residual-Control   Outer-Iter.   Inner-Iter.     Column Row Layer    Maximum-Head-Change  Column Row Layer    Maximum-Flux-Residual          L2-NORM 
          0                11           1            35    1    39       0.7041626280E-04      38    1   16         0.7912040599E-04      0.8885509517E-03
          0                12           1            35    1    39       0.9008708394E-04      34    1   16         0.6162500401E-04      0.8427083415E-03
          0                13           1            35    1    39       0.5875740993E-04      38    1   16         0.7391591436E-04      0.8002772829E-03
          0                14           1            35    1    39       0.8870888772E-04      34    1   16         0.5426445784E-04      0.7575854080E-03
          0                15           1            35    1    39       0.4990136520E-04      38    1   16         0.6782003615E-04      0.7189703025E-03
          0                16           1            35    1    39       0.8576074789E-04      34    1   16         0.4756495298E-04      0.6790913478E-03
          0                17           1            36    1    40       0.4289400734E-04      38    1   16         0.6119177593E-04      0.6438091796E-03
          0                18           1            36    1    40       0.8141025489E-04      34    1   16         0.4156470413E-04      0.6067211667E-03
          0                19           1            36    1    40       0.3717366498E-04      38    1   16         0.5438865972E-04      0.5745501362E-03
          0                20           1            36    1    40       0.7591948563E-04      34    1   16         0.3624067443E-04      0.5403398535E-03
                                                   Max.-Head-Change                         Max.-Flux-Residual
  Residual-Control   Outer-Iter.   Inner-Iter.     Column Row Layer    Maximum-Head-Change  Column Row Layer    Maximum-Flux-Residual          L2-NORM 
          0                21           1            36    1    40       0.3240047937E-04      38    1   16         0.4771068046E-04      0.5111583539E-03
          0                22           1            36    1    40       0.6964882264E-04      34    1   16         0.3154655991E-04      0.4799095545E-03
          0                23           1            36    1    40       0.2836977494E-04      38    1   16         0.4137978982E-04      0.4536130575E-03
          0                24           1            36    1    40       0.6297231987E-04      34    1   16         0.2742809414E-04      0.4253530089E-03
          0                25           1            36    1    40       0.2494303063E-04      38    1   16         0.3554237543E-04      0.4018161307E-03
          0                26           1            36    1    40       0.5622254661E-04      34    1   16         0.2382934096E-04      0.3764975044E-03
          0                27           1            36    1    40       0.2201914534E-04      38    1   14         0.3038206182E-04      0.3555619331E-03
          0                28           1            37    1    39       0.4967473888E-04      37    1   21         0.2085018667E-04      0.3330652600E-03
          0                29           1            38    1    40       0.1952156796E-04      38    1   14         0.2676268863E-04      0.3145418405E-03
          0                30           1            37    1    39       0.4351827305E-04      37    1   21         0.1850303519E-04      0.2946890006E-03
                                                   Max.-Head-Change                         Max.-Flux-Residual
  Residual-Control   Outer-Iter.   Inner-Iter.     Column Row Layer    Maximum-Head-Change  Column Row Layer    Maximum-Flux-Residual          L2-NORM 
          0                31           1            38    1    40       0.1738608686E-04      38    1   14         0.2342940010E-04      0.2783667098E-03
          0                32           1            38    1    40       0.3787302237E-04      37    1   21         0.1641709630E-04      0.2609391369E-03
          0                33           1            38    1    40       0.1555201953E-04      38    1   14         0.2040559249E-04      0.2465963695E-03
          0                34           1            38    1    40       0.3280234495E-04      37    1   21         0.1456943048E-04      0.2313537083E-03
          0                35           1            38    1    40       0.1397361441E-04      38    1   14         0.1770034976E-04      0.2187690531E-03
          0                36           1            38    1    40       0.2831737498E-04      37    1   21         0.1293601318E-04      0.2054655525E-03
          0                37           1            38    1    40       0.1261145256E-04      38    1   14         0.1530932965E-04      0.1944265350E-03
          0                38           1            38    1    40       0.2440014309E-04      33    1   27         0.1153300440E-04      0.1828237662E-03
          0                39           1            38    1    40       0.1143164646E-04      38    1   14         0.1321740794E-04      0.1731329875E-03
          0                40           1            38    1    40       0.2101074053E-04      33    1   27         0.1039385947E-04      0.1630085353E-03
                                                   Max.-Head-Change                         Max.-Flux-Residual
  Residual-Control   Outer-Iter.   Inner-Iter.     Column Row Layer    Maximum-Head-Change  Column Row Layer    Maximum-Flux-Residual          L2-NORM 
          0                41           1            36    1    40       0.1040528862E-04      33    1   21         0.1150433815E-04      0.1544872702E-03
          0                42           1            38    1    40       0.1809749516E-04      33    1   27         0.9388487456E-05      0.1456397516E-03
          0                43           1            36    1    40       0.9511286795E-05      33    1   21         0.1007846384E-04      0.1381294259E-03
          0                44           1            38    1    40       0.1560444846E-04      33    1   27         0.8497762053E-05      0.1303805851E-03
          0                45           1            36    1    40       0.8725136944E-05      33    1   19         0.8871745564E-05      0.1237426891E-03
          0                46           1            38    1    40       0.1347632615E-04      33    1   27         0.7705292546E-05      0.1169373932E-03
          0                47           1            36    1    40       0.8029187374E-05      33    1   19         0.7864017078E-05      0.1110523639E-03
          0                48           1            38    1    40       0.1166153159E-04      33    1   27         0.6997158636E-05      0.1050572757E-03

    ------------------------------------------------
       NWT REQUIRED           48 OUTER ITERATIONS 
       AND A TOTAL OF         52 INNER ITERATIONS.
    ------------------------------------------------

 OUTPUT CONTROL FOR STRESS PERIOD    3   TIME STEP    6
    PRINT BUDGET
    SAVE HEAD FOR ALL LAYERS
    SAVE DRAWDOWN FOR ALL LAYERS
    SAVE BUDGET
 UBDSV1 SAVING "         STORAGE" ON UNIT  40 AT TIME STEP  6, STRESS PERIOD   3
 UBDSV2 SAVING "   CONSTANT HEAD" ON UNIT  40 AT TIME STEP  6, STRESS PERIOD   3
 UBDSV1 SAVING "FLOW RIGHT FACE " ON UNIT  40 AT TIME STEP  6, STRESS PERIOD   3
 UBDSV1 SAVING "FLOW LOWER FACE " ON UNIT  40 AT TIME STEP  6, STRESS PERIOD   3
 UBDSV4 SAVING "          DRAINS" ON UNIT  40 AT TIME STEP  6, STRESS PERIOD   3
 UBDSV4 SAVING " HEAD DEP BOUNDS" ON UNIT  40 AT TIME STEP  6, STRESS PERIOD   3

 SAVING SATURATED THICKNESS AND FLOW TERMS ON UNIT  333 FOR MT3DMS
 BY THE LINK-MT3DMS PACKAGE V7 AT TIME STEP    6, STRESS PERIOD    3


 HEAD WILL BE SAVED ON UNIT    2 AT END OF TIME STEP    6, STRESS PERIOD    3

 DRAWDOWN WILL BE SAVED ON UNIT   12 AT END OF TIME STEP    6, STRESS PERIOD    3
1
  VOLUMETRIC BUDGET FOR ENTIRE MODEL AT END OF TIME STEP    6, STRESS PERIOD   3
  ------------------------------------------------------------------------------

     CUMULATIVE VOLUMES      L**3       RATES FOR THIS TIME STEP      L**3/T
     ------------------                 ------------------------

           IN:                                      IN:
           ---                                      ---
             STORAGE     =          66.6349               STORAGE     =       1.9544E-09
       CONSTANT HEAD     =           0.0000         CONSTANT HEAD     =           0.0000
              DRAINS     =           0.0000                DRAINS     =           0.0000
     HEAD DEP BOUNDS     =         750.0507       HEAD DEP BOUNDS     =          39.9662

                TOTAL IN =         816.6857                  TOTAL IN =          39.9662

          OUT:                                     OUT:
          ----                                     ----
             STORAGE     =          59.4593               STORAGE     =       1.7666E-02
       CONSTANT HEAD     =           0.0000         CONSTANT HEAD     =           0.0000
              DRAINS     =         745.0010                DRAINS     =          39.9459
     HEAD DEP BOUNDS     =          12.2682       HEAD DEP BOUNDS     =           0.0000

               TOTAL OUT =         816.7285                 TOTAL OUT =          39.9635

                IN - OUT =      -4.2847E-02                  IN - OUT =       2.6588E-03

     PERCENT DISCREPANCY =          -0.01         PERCENT DISCREPANCY =           0.01






         TIME SUMMARY AT END OF TIME STEP    6 IN STRESS PERIOD    3
                    SECONDS     MINUTES      HOURS       DAYS        YEARS
                    -----------------------------------------------------------
   TIME STEP LENGTH  86400.      1440.0      24.000      1.0000     2.73785E-03
 STRESS PERIOD TIME 5.18400E+05  8640.0      144.00      6.0000     1.64271E-02
         TOTAL TIME 2.24640E+06  37440.      624.00      26.000     7.11841E-02
1
 
 SOLVING FOR HEAD 
                                                   Max.-Head-Change                         Max.-Flux-Residual
  Residual-Control   Outer-Iter.   Inner-Iter.     Column Row Layer    Maximum-Head-Change  Column Row Layer    Maximum-Flux-Residual          L2-NORM 
          0                 1           1            44    1    12       0.7040343218E-03      44    1   12         0.7680597462E-03      0.2912634978E-02
          0                 2           1            42    1    11       0.4781685580E-03      39    1   13         0.2857722271E-03      0.1394806146E-02
          0                 3           1            36    1     8       0.1865285552E-03      43    1   13         0.1705536044E-03      0.9711075212E-03
          0                 4           1            42    1    11       0.1281927176E-03      40    1   14         0.1222543124E-03      0.7622221142E-03
          0                 5           1            39    1    10       0.1468499858E-03      43    1   13         0.1061211408E-03      0.6605517142E-03
          0                 6           1            39    1    10       0.6683743652E-04      40    1   14         0.8431395216E-04      0.5726968563E-03
          0                 7           1            36    1     8       0.1066436370E-03      43    1   13         0.6777666138E-04      0.5115051135E-03
          0                 8           1            39    1    10       0.4462917889E-04      40    1   14         0.6254757125E-04      0.4603114146E-03
          0                 9           1            36    1     8       0.7657484602E-04      43    1   13         0.4776920977E-04      0.4197227966E-03
          0                10           1            39    1    10       0.3392592189E-04      40    1   14         0.4728714413E-04      0.3867443038E-03
                                                   Max.-Head-Change                         Max.-Flux-Residual
  Residual-Control   Outer-Iter.   Inner-Iter.     Column Row Layer    Maximum-Head-Change  Column Row Layer    Maximum-Flux-Residual          L2-NORM 
          0                11           1            36    1     8       0.5547785445E-04      43    1   13         0.3639131626E-04      0.3582526390E-03
          0                12           1            39    1    10       0.2776099830E-04      40    1   14         0.3651604501E-04      0.3348096704E-03
          0                13           1            36    1     8       0.4128002686E-04      43    1   13         0.2918241685E-04      0.3133078041E-03
          0                14           1            39    1    10       0.2369881753E-04      40    1   14         0.2876743088E-04      0.2950846699E-03
          0                15           1            36    1     8       0.3179457183E-04      38    1   16         0.2433222494E-04      0.2778049233E-03
          0                16           1            39    1    10       0.2072430923E-04      42    1   16         0.2424083345E-04      0.2627265212E-03
          0                17           1            36    1     8       0.2535267625E-04      38    1   16         0.2131571532E-04      0.2482279948E-03
          0                18           1            39    1    10       0.1835352340E-04      42    1   16         0.2080131142E-04      0.2352678293E-03
          0                19           1            35    1    37       0.2101173303E-04      38    1   16         0.1877734081E-04      0.2227695839E-03
          0                20           1            36    1    36       0.1689237599E-04      42    1   16         0.1791647489E-04      0.2113823111E-03
                                                   Max.-Head-Change                         Max.-Flux-Residual
  Residual-Control   Outer-Iter.   Inner-Iter.     Column Row Layer    Maximum-Head-Change  Column Row Layer    Maximum-Flux-Residual          L2-NORM 
          0                21           1            35    1    39       0.1872734588E-04      38    1   16         0.1653601848E-04      0.2004281890E-03
          0                22           1            36    1    38       0.1557787709E-04      42    1   16         0.1546203760E-04      0.1902972806E-03
          0                23           1            35    1    39       0.1678998027E-04      38    1   16         0.1451770410E-04      0.1805976133E-03
          0                24           1            37    1    37       0.1422990525E-04      42    1   16         0.1335922977E-04      0.1715209948E-03
          0                25           1            36    1    40       0.1514171158E-04      38    1   16         0.1269667885E-04      0.1628763549E-03
          0                26           1            37    1    37       0.1290113713E-04      42    1   16         0.1155103709E-04      0.1547121098E-03
          0                27           1            36    1    40       0.1372570735E-04      38    1   16         0.1106380364E-04      0.1469749701E-03
          0                28           1            37    1    37       0.1162550937E-04      42    1   16         0.9992093140E-05      0.1396145428E-03
          0                29           1            36    1    40       0.1249712289E-04      38    1   16         0.9612147210E-05      0.1326692078E-03
          0                30           1            38    1    38       0.1042862029E-04      37    1   21         0.8779890862E-05      0.1260239198E-03
                                                   Max.-Head-Change                         Max.-Flux-Residual
  Residual-Control   Outer-Iter.   Inner-Iter.     Column Row Layer    Maximum-Head-Change  Column Row Layer    Maximum-Flux-Residual          L2-NORM 
          0                31           1            36    1    40       0.1142092280E-04      38    1   16         0.8332238139E-05      0.1197756572E-03
          0                32           1            38    1    38       0.9322832554E-05      37    1   21         0.7915693573E-05      0.1137698694E-03
          0                33           1            36    1    40       0.1046961512E-04      33    1   21         0.7226951254E-05      0.1081388268E-03
          0                34           1            38    1    38       0.8310434868E-05      37    1   21         0.7126251234E-05      0.1027064257E-03

    ------------------------------------------------
       NWT REQUIRED           34 OUTER ITERATIONS 
       AND A TOTAL OF         34 INNER ITERATIONS.
    ------------------------------------------------

 OUTPUT CONTROL FOR STRESS PERIOD    3   TIME STEP    7
    PRINT BUDGET
    SAVE HEAD FOR ALL LAYERS
    SAVE DRAWDOWN FOR ALL LAYERS
    SAVE BUDGET
 UBDSV1 SAVING "         STORAGE" ON UNIT  40 AT TIME STEP  7, STRESS PERIOD   3
 UBDSV2 SAVING "   CONSTANT HEAD" ON UNIT  40 AT TIME STEP  7, STRESS PERIOD   3
 UBDSV1 SAVING "FLOW RIGHT FACE " ON UNIT  40 AT TIME STEP  7, STRESS PERIOD   3
 UBDSV1 SAVING "FLOW LOWER FACE " ON UNIT  40 AT TIME STEP  7, STRESS PERIOD   3
 UBDSV4 SAVING "          DRAINS" ON UNIT  40 AT TIME STEP  7, STRESS PERIOD   3
 UBDSV4 SAVING " HEAD DEP BOUNDS" ON UNIT  40 AT TIME STEP  7, STRESS PERIOD   3

 SAVING SATURATED THICKNESS AND FLOW TERMS ON UNIT  333 FOR MT3DMS
 BY THE LINK-MT3DMS PACKAGE V7 AT TIME STEP    7, STRESS PERIOD    3


 HEAD WILL BE SAVED ON UNIT    2 AT END OF TIME STEP    7, STRESS PERIOD    3

 DRAWDOWN WILL BE SAVED ON UNIT   12 AT END OF TIME STEP    7, STRESS PERIOD    3
1
  VOLUMETRIC BUDGET FOR ENTIRE MODEL AT END OF TIME STEP    7, STRESS PERIOD   3
  ------------------------------------------------------------------------------

     CUMULATIVE VOLUMES      L**3       RATES FOR THIS TIME STEP      L**3/T
     ------------------                 ------------------------

           IN:                                      IN:
           ---                                      ---
             STORAGE     =          66.6349               STORAGE     =       1.9310E-09
       CONSTANT HEAD     =           0.0000         CONSTANT HEAD     =           0.0000
              DRAINS     =           0.0000                DRAINS     =           0.0000
     HEAD DEP BOUNDS     =         790.0110       HEAD DEP BOUNDS     =          39.9604

                TOTAL IN =         856.6460                  TOTAL IN =          39.9604

          OUT:                                     OUT:
          ----                                     ----
             STORAGE     =          59.4632               STORAGE     =       3.8785E-03
       CONSTANT HEAD     =           0.0000         CONSTANT HEAD     =           0.0000
              DRAINS     =         784.9548                DRAINS     =          39.9538
     HEAD DEP BOUNDS     =          12.2682       HEAD DEP BOUNDS     =           0.0000

               TOTAL OUT =         856.6862                 TOTAL OUT =          39.9577

                IN - OUT =      -4.0222E-02                  IN - OUT =       2.6245E-03

     PERCENT DISCREPANCY =          -0.00         PERCENT DISCREPANCY =           0.01






         TIME SUMMARY AT END OF TIME STEP    7 IN STRESS PERIOD    3
                    SECONDS     MINUTES      HOURS       DAYS        YEARS
                    -----------------------------------------------------------
   TIME STEP LENGTH  86400.      1440.0      24.000      1.0000     2.73785E-03
 STRESS PERIOD TIME 6.04800E+05  10080.      168.00      7.0000     1.91650E-02
         TOTAL TIME 2.33280E+06  38880.      648.00      27.000     7.39220E-02
1
 
 SOLVING FOR HEAD 
                                                   Max.-Head-Change                         Max.-Flux-Residual
  Residual-Control   Outer-Iter.   Inner-Iter.     Column Row Layer    Maximum-Head-Change  Column Row Layer    Maximum-Flux-Residual          L2-NORM 
          0                 1           1            44    1    12       0.1532408084E-03      44    1   12         0.1718700386E-03      0.6564228353E-03
          0                 2           1            42    1    11       0.1108306298E-03      39    1   13         0.6293404684E-04      0.3387936514E-03
          0                 3           1            36    1     8       0.4741049580E-04      43    1   13         0.3939233687E-04      0.2563523289E-03
          0                 4           1            42    1    11       0.3174171095E-04      40    1   14         0.2932096328E-04      0.2138326383E-03
          0                 5           1            39    1    10       0.4118099293E-04      43    1   13         0.2553375938E-04      0.1933424670E-03
          0                 6           1            42    1    11       0.1684770200E-04      40    1   14         0.2179972725E-04      0.1736594223E-03
          0                 7           1            36    1     8       0.3257456951E-04      43    1   13         0.1685352674E-04      0.1596187740E-03
          0                 8           1            39    1    10       0.1121098964E-04      40    1   14         0.1728114418E-04      0.1466400892E-03
          0                 9           1            36    1     8       0.2452114720E-04      43    1   13         0.1218404401E-04      0.1359127183E-03
          0                10           1            39    1    10       0.8631286565E-05      40    1   14         0.1361488196E-04      0.1264957698E-03
                                                   Max.-Head-Change                         Max.-Flux-Residual
  Residual-Control   Outer-Iter.   Inner-Iter.     Column Row Layer    Maximum-Head-Change  Column Row Layer    Maximum-Flux-Residual          L2-NORM 
          0                11           1            36    1     8       0.1834230680E-04      38    1   16         0.9582395251E-05      0.1180411351E-03
          0                12           1            35    1    19       0.7210055387E-05      43    1   15         0.1116524876E-04      0.1107075652E-03
          0                13           1            36    1     8       0.1406867255E-04      38    1   16         0.8119757922E-05      0.1038412451E-03

    ------------------------------------------------
       NWT REQUIRED           13 OUTER ITERATIONS 
       AND A TOTAL OF         13 INNER ITERATIONS.
    ------------------------------------------------

 OUTPUT CONTROL FOR STRESS PERIOD    3   TIME STEP    8
    PRINT BUDGET
    SAVE HEAD FOR ALL LAYERS
    SAVE DRAWDOWN FOR ALL LAYERS
    SAVE BUDGET
 UBDSV1 SAVING "         STORAGE" ON UNIT  40 AT TIME STEP  8, STRESS PERIOD   3
 UBDSV2 SAVING "   CONSTANT HEAD" ON UNIT  40 AT TIME STEP  8, STRESS PERIOD   3
 UBDSV1 SAVING "FLOW RIGHT FACE " ON UNIT  40 AT TIME STEP  8, STRESS PERIOD   3
 UBDSV1 SAVING "FLOW LOWER FACE " ON UNIT  40 AT TIME STEP  8, STRESS PERIOD   3
 UBDSV4 SAVING "          DRAINS" ON UNIT  40 AT TIME STEP  8, STRESS PERIOD   3
 UBDSV4 SAVING " HEAD DEP BOUNDS" ON UNIT  40 AT TIME STEP  8, STRESS PERIOD   3

 SAVING SATURATED THICKNESS AND FLOW TERMS ON UNIT  333 FOR MT3DMS
 BY THE LINK-MT3DMS PACKAGE V7 AT TIME STEP    8, STRESS PERIOD    3


 HEAD WILL BE SAVED ON UNIT    2 AT END OF TIME STEP    8, STRESS PERIOD    3

 DRAWDOWN WILL BE SAVED ON UNIT   12 AT END OF TIME STEP    8, STRESS PERIOD    3
1
  VOLUMETRIC BUDGET FOR ENTIRE MODEL AT END OF TIME STEP    8, STRESS PERIOD   3
  ------------------------------------------------------------------------------

     CUMULATIVE VOLUMES      L**3       RATES FOR THIS TIME STEP      L**3/T
     ------------------                 ------------------------

           IN:                                      IN:
           ---                                      ---
             STORAGE     =          66.6349               STORAGE     =       2.1156E-09
       CONSTANT HEAD     =           0.0000         CONSTANT HEAD     =           0.0000
              DRAINS     =           0.0000                DRAINS     =           0.0000
     HEAD DEP BOUNDS     =         829.9701       HEAD DEP BOUNDS     =          39.9591

                TOTAL IN =         896.6050                  TOTAL IN =          39.9591

          OUT:                                     OUT:
          ----                                     ----
             STORAGE     =          59.4641               STORAGE     =       8.4765E-04
       CONSTANT HEAD     =           0.0000         CONSTANT HEAD     =           0.0000
              DRAINS     =         824.9105                DRAINS     =          39.9556
     HEAD DEP BOUNDS     =          12.2682       HEAD DEP BOUNDS     =           0.0000

               TOTAL OUT =         896.6427                 TOTAL OUT =          39.9565

                IN - OUT =      -3.7720E-02                  IN - OUT =       2.5787E-03

     PERCENT DISCREPANCY =          -0.00         PERCENT DISCREPANCY =           0.01






         TIME SUMMARY AT END OF TIME STEP    8 IN STRESS PERIOD    3
                    SECONDS     MINUTES      HOURS       DAYS        YEARS
                    -----------------------------------------------------------
   TIME STEP LENGTH  86400.      1440.0      24.000      1.0000     2.73785E-03
 STRESS PERIOD TIME 6.91200E+05  11520.      192.00      8.0000     2.19028E-02
         TOTAL TIME 2.41920E+06  40320.      672.00      28.000     7.66598E-02
1
 
 SOLVING FOR HEAD 
                                                   Max.-Head-Change                         Max.-Flux-Residual
  Residual-Control   Outer-Iter.   Inner-Iter.     Column Row Layer    Maximum-Head-Change  Column Row Layer    Maximum-Flux-Residual          L2-NORM 
          0                 1           1            44    1    12       0.3517887749E-04      44    1   12         0.3724942880E-04      0.1748883373E-03
          0                 2           1            42    1    11       0.3969553412E-04      39    1   13         0.1712771200E-04      0.1303789474E-03
          0                 3           1            34    1    16       0.1661395668E-04      34    1   14         0.1214079606E-04      0.1151981718E-03
          0                 4           1            42    1    11       0.1130608310E-04      40    1   14         0.1006800088E-04      0.1038830987E-03

    ------------------------------------------------
       NWT REQUIRED            4 OUTER ITERATIONS 
       AND A TOTAL OF          4 INNER ITERATIONS.
    ------------------------------------------------

 OUTPUT CONTROL FOR STRESS PERIOD    3   TIME STEP    9
    PRINT BUDGET
    SAVE HEAD FOR ALL LAYERS
    SAVE DRAWDOWN FOR ALL LAYERS
    SAVE BUDGET
 UBDSV1 SAVING "         STORAGE" ON UNIT  40 AT TIME STEP  9, STRESS PERIOD   3
 UBDSV2 SAVING "   CONSTANT HEAD" ON UNIT  40 AT TIME STEP  9, STRESS PERIOD   3
 UBDSV1 SAVING "FLOW RIGHT FACE " ON UNIT  40 AT TIME STEP  9, STRESS PERIOD   3
 UBDSV1 SAVING "FLOW LOWER FACE " ON UNIT  40 AT TIME STEP  9, STRESS PERIOD   3
 UBDSV4 SAVING "          DRAINS" ON UNIT  40 AT TIME STEP  9, STRESS PERIOD   3
 UBDSV4 SAVING " HEAD DEP BOUNDS" ON UNIT  40 AT TIME STEP  9, STRESS PERIOD   3

 SAVING SATURATED THICKNESS AND FLOW TERMS ON UNIT  333 FOR MT3DMS
 BY THE LINK-MT3DMS PACKAGE V7 AT TIME STEP    9, STRESS PERIOD    3


 HEAD WILL BE SAVED ON UNIT    2 AT END OF TIME STEP    9, STRESS PERIOD    3

 DRAWDOWN WILL BE SAVED ON UNIT   12 AT END OF TIME STEP    9, STRESS PERIOD    3
1
  VOLUMETRIC BUDGET FOR ENTIRE MODEL AT END OF TIME STEP    9, STRESS PERIOD   3
  ------------------------------------------------------------------------------

     CUMULATIVE VOLUMES      L**3       RATES FOR THIS TIME STEP      L**3/T
     ------------------                 ------------------------

           IN:                                      IN:
           ---                                      ---
             STORAGE     =          66.6349               STORAGE     =       2.4174E-09
       CONSTANT HEAD     =           0.0000         CONSTANT HEAD     =           0.0000
              DRAINS     =           0.0000                DRAINS     =           0.0000
     HEAD DEP BOUNDS     =         869.9289       HEAD DEP BOUNDS     =          39.9588

                TOTAL IN =         936.5638                  TOTAL IN =          39.9588

          OUT:                                     OUT:
          ----                                     ----
             STORAGE     =          59.4642               STORAGE     =       1.6778E-04
       CONSTANT HEAD     =           0.0000         CONSTANT HEAD     =           0.0000
              DRAINS     =         864.8665                DRAINS     =          39.9560
     HEAD DEP BOUNDS     =          12.2682       HEAD DEP BOUNDS     =           0.0000

               TOTAL OUT =         936.5989                 TOTAL OUT =          39.9562

                IN - OUT =      -3.5034E-02                  IN - OUT =       2.6093E-03

     PERCENT DISCREPANCY =          -0.00         PERCENT DISCREPANCY =           0.01






         TIME SUMMARY AT END OF TIME STEP    9 IN STRESS PERIOD    3
                    SECONDS     MINUTES      HOURS       DAYS        YEARS
                    -----------------------------------------------------------
   TIME STEP LENGTH  86400.      1440.0      24.000      1.0000     2.73785E-03
 STRESS PERIOD TIME 7.77600E+05  12960.      216.00      9.0000     2.46407E-02
         TOTAL TIME 2.50560E+06  41760.      696.00      29.000     7.93977E-02
1
 
 SOLVING FOR HEAD 
                                                   Max.-Head-Change                         Max.-Flux-Residual
  Residual-Control   Outer-Iter.   Inner-Iter.     Column Row Layer    Maximum-Head-Change  Column Row Layer    Maximum-Flux-Residual          L2-NORM 
          0                 1           1            42    1    11       0.1390585791E-04      39    1   11         0.1204920775E-04      0.1040617553E-03

    ------------------------------------------------
       NWT REQUIRED            1 OUTER ITERATIONS 
       AND A TOTAL OF          1 INNER ITERATIONS.
    ------------------------------------------------

 OUTPUT CONTROL FOR STRESS PERIOD    3   TIME STEP   10
    PRINT BUDGET
    SAVE HEAD FOR ALL LAYERS
    SAVE DRAWDOWN FOR ALL LAYERS
    SAVE BUDGET
 UBDSV1 SAVING "         STORAGE" ON UNIT  40 AT TIME STEP 10, STRESS PERIOD   3
 UBDSV2 SAVING "   CONSTANT HEAD" ON UNIT  40 AT TIME STEP 10, STRESS PERIOD   3
 UBDSV1 SAVING "FLOW RIGHT FACE " ON UNIT  40 AT TIME STEP 10, STRESS PERIOD   3
 UBDSV1 SAVING "FLOW LOWER FACE " ON UNIT  40 AT TIME STEP 10, STRESS PERIOD   3
 UBDSV4 SAVING "          DRAINS" ON UNIT  40 AT TIME STEP 10, STRESS PERIOD   3
 UBDSV4 SAVING " HEAD DEP BOUNDS" ON UNIT  40 AT TIME STEP 10, STRESS PERIOD   3

 SAVING SATURATED THICKNESS AND FLOW TERMS ON UNIT  333 FOR MT3DMS
 BY THE LINK-MT3DMS PACKAGE V7 AT TIME STEP   10, STRESS PERIOD    3


 HEAD WILL BE SAVED ON UNIT    2 AT END OF TIME STEP   10, STRESS PERIOD    3

 DRAWDOWN WILL BE SAVED ON UNIT   12 AT END OF TIME STEP   10, STRESS PERIOD    3
1
  VOLUMETRIC BUDGET FOR ENTIRE MODEL AT END OF TIME STEP   10, STRESS PERIOD   3
  ------------------------------------------------------------------------------

     CUMULATIVE VOLUMES      L**3       RATES FOR THIS TIME STEP      L**3/T
     ------------------                 ------------------------

           IN:                                      IN:
           ---                                      ---
             STORAGE     =          66.6349               STORAGE     =       7.0063E-09
       CONSTANT HEAD     =           0.0000         CONSTANT HEAD     =           0.0000
              DRAINS     =           0.0000                DRAINS     =           0.0000
     HEAD DEP BOUNDS     =         909.8876       HEAD DEP BOUNDS     =          39.9587

                TOTAL IN =         976.5226                  TOTAL IN =          39.9587

          OUT:                                     OUT:
          ----                                     ----
             STORAGE     =          59.4642               STORAGE     =       2.4438E-05
       CONSTANT HEAD     =           0.0000         CONSTANT HEAD     =           0.0000
              DRAINS     =         904.8225                DRAINS     =          39.9561
     HEAD DEP BOUNDS     =          12.2682       HEAD DEP BOUNDS     =           0.0000

               TOTAL OUT =         976.5549                 TOTAL OUT =          39.9561

                IN - OUT =      -3.2349E-02                  IN - OUT =       2.6550E-03

     PERCENT DISCREPANCY =          -0.00         PERCENT DISCREPANCY =           0.01






         TIME SUMMARY AT END OF TIME STEP   10 IN STRESS PERIOD    3
                    SECONDS     MINUTES      HOURS       DAYS        YEARS
                    -----------------------------------------------------------
   TIME STEP LENGTH  86400.      1440.0      24.000      1.0000     2.73785E-03
 STRESS PERIOD TIME 8.64000E+05  14400.      240.00      10.000     2.73785E-02
         TOTAL TIME 2.59200E+06  43200.      720.00      30.000     8.21355E-02
1

 Run end date and time (yyyy/mm/dd hh:mm:ss): 2023/05/24 22:47:35
 Elapsed run time:  1.032 Seconds

