                                  MODFLOW-NWT-SWR1 
      U.S. GEOLOGICAL SURVEY MODULAR FINITE-DIFFERENCE GROUNDWATER-FLOW MODEL
                            VERSION 1.2.0 03/01/2020
                    BASED ON MODFLOW-2005 VERSION 1.12.00 02/03/2017

 LIST FILE: case2.out
                         UNIT    1

 OPENING case2.hed
 FILE TYPE:DATA(BINARY)   UNIT    2   STATUS:UNKNOWN
 FORMAT:BINARY                 ACCESS:SEQUENTIAL          

 OPENING case2.drw
 FILE TYPE:DATA(BINARY)   UNIT   13   STATUS:UNKNOWN
 FORMAT:BINARY                 ACCESS:SEQUENTIAL          

 OPENING case2.ccf
 FILE TYPE:DATA(BINARY)   UNIT   40   STATUS:UNKNOWN
 FORMAT:BINARY                 ACCESS:SEQUENTIAL          

 OPENING case2.lmt6
 FILE TYPE:LMT6   UNIT    8   STATUS:OLD    
 FORMAT:FORMATTED              ACCESS:SEQUENTIAL          

 OPENING case2.dis
 FILE TYPE:DIS   UNIT    4   STATUS:OLD    
 FORMAT:FORMATTED              ACCESS:SEQUENTIAL          

 OPENING case2.ba6
 FILE TYPE:BAS6   UNIT    7   STATUS:OLD    
 FORMAT:FORMATTED              ACCESS:SEQUENTIAL          

 OPENING case2.upw
 FILE TYPE:UPW   UNIT    3   STATUS:OLD    
 FORMAT:FORMATTED              ACCESS:SEQUENTIAL          

 OPENING case2.oc
 FILE TYPE:OC   UNIT    9   STATUS:OLD    
 FORMAT:FORMATTED              ACCESS:SEQUENTIAL          

 OPENING case2.drn
 FILE TYPE:DRN   UNIT   10   STATUS:OLD    
 FORMAT:FORMATTED              ACCESS:SEQUENTIAL          

 OPENING case2.ghb
 FILE TYPE:GHB   UNIT   11   STATUS:OLD    
 FORMAT:FORMATTED              ACCESS:SEQUENTIAL          

 OPENING case2.nwt
 FILE TYPE:NWT   UNIT   14   STATUS:OLD    
 FORMAT:FORMATTED              ACCESS:SEQUENTIAL          

 BAS -- BASIC PACKAGE, VERSION 1.2.0, 3/01/2020 INPUT READ FROM UNIT    7
 
 MODFLOW was compiled using mixed precision
 Precision of REAL variables:           6
 Precision of DOUBLE PRECISION variables:          15

 DISCRETIZATION INPUT DATA READ FROM UNIT    4
 # MF2K DISCRETIZATION FILE
 #
 #
 # NLAY NROW NCOL NPER TIMEUNITS LENUNITS
   40 LAYERS         1 ROWS       100 COLUMNS
    3 STRESS PERIOD(S) IN SIMULATION
 MODEL TIME UNIT IS DAYS
 MODEL LENGTH UNIT IS METERS
  Confining bed flag for each layer:
   0   0   0   0   0   0   0   0   0   0   0   0   0   0   0   0   0   0   0   0
   0   0   0   0   0   0   0   0   0   0   0   0   0   0   0   0   0   0   0   0

                     DELR =   1.00000    

                     DELC =   1.00000    

 TOP ELEVATION OF LAYER 1 =   40.0000    



             MODEL LAYER BOTTOM EL. FOR LAYER   1
 READING ON UNIT    4 WITH FORMAT: (FREE)              

   MODEL LAYER BOTTOM EL. =   38.0000     FOR LAYER   2



             MODEL LAYER BOTTOM EL. FOR LAYER   3
 READING ON UNIT    4 WITH FORMAT: (FREE)              

   MODEL LAYER BOTTOM EL. =   36.0000     FOR LAYER   4



             MODEL LAYER BOTTOM EL. FOR LAYER   5
 READING ON UNIT    4 WITH FORMAT: (FREE)              

   MODEL LAYER BOTTOM EL. =   34.0000     FOR LAYER   6



             MODEL LAYER BOTTOM EL. FOR LAYER   7
 READING ON UNIT    4 WITH FORMAT: (FREE)              

   MODEL LAYER BOTTOM EL. =   32.0000     FOR LAYER   8



             MODEL LAYER BOTTOM EL. FOR LAYER   9
 READING ON UNIT    4 WITH FORMAT: (FREE)              

   MODEL LAYER BOTTOM EL. =   30.0000     FOR LAYER  10



             MODEL LAYER BOTTOM EL. FOR LAYER  11
 READING ON UNIT    4 WITH FORMAT: (FREE)              

   MODEL LAYER BOTTOM EL. =   28.0000     FOR LAYER  12



             MODEL LAYER BOTTOM EL. FOR LAYER  13
 READING ON UNIT    4 WITH FORMAT: (FREE)              

   MODEL LAYER BOTTOM EL. =   26.0000     FOR LAYER  14



             MODEL LAYER BOTTOM EL. FOR LAYER  15
 READING ON UNIT    4 WITH FORMAT: (FREE)              

   MODEL LAYER BOTTOM EL. =   24.0000     FOR LAYER  16



             MODEL LAYER BOTTOM EL. FOR LAYER  17
 READING ON UNIT    4 WITH FORMAT: (FREE)              

   MODEL LAYER BOTTOM EL. =   22.0000     FOR LAYER  18



             MODEL LAYER BOTTOM EL. FOR LAYER  19
 READING ON UNIT    4 WITH FORMAT: (FREE)              

   MODEL LAYER BOTTOM EL. =   20.0000     FOR LAYER  20



             MODEL LAYER BOTTOM EL. FOR LAYER  21
 READING ON UNIT    4 WITH FORMAT: (FREE)              

   MODEL LAYER BOTTOM EL. =   18.0000     FOR LAYER  22



             MODEL LAYER BOTTOM EL. FOR LAYER  23
 READING ON UNIT    4 WITH FORMAT: (FREE)              

   MODEL LAYER BOTTOM EL. =   16.0000     FOR LAYER  24



             MODEL LAYER BOTTOM EL. FOR LAYER  25
 READING ON UNIT    4 WITH FORMAT: (FREE)              

   MODEL LAYER BOTTOM EL. =   14.0000     FOR LAYER  26



             MODEL LAYER BOTTOM EL. FOR LAYER  27
 READING ON UNIT    4 WITH FORMAT: (FREE)              

   MODEL LAYER BOTTOM EL. =   12.0000     FOR LAYER  28



             MODEL LAYER BOTTOM EL. FOR LAYER  29
 READING ON UNIT    4 WITH FORMAT: (FREE)              

   MODEL LAYER BOTTOM EL. =   10.0000     FOR LAYER  30



             MODEL LAYER BOTTOM EL. FOR LAYER  31
 READING ON UNIT    4 WITH FORMAT: (FREE)              

   MODEL LAYER BOTTOM EL. =   8.00000     FOR LAYER  32



             MODEL LAYER BOTTOM EL. FOR LAYER  33
 READING ON UNIT    4 WITH FORMAT: (FREE)              

   MODEL LAYER BOTTOM EL. =   6.00000     FOR LAYER  34



             MODEL LAYER BOTTOM EL. FOR LAYER  35
 READING ON UNIT    4 WITH FORMAT: (FREE)              

   MODEL LAYER BOTTOM EL. =   4.00000     FOR LAYER  36



             MODEL LAYER BOTTOM EL. FOR LAYER  37
 READING ON UNIT    4 WITH FORMAT: (FREE)              

   MODEL LAYER BOTTOM EL. =   2.00000     FOR LAYER  38



             MODEL LAYER BOTTOM EL. FOR LAYER  39
 READING ON UNIT    4 WITH FORMAT: (FREE)              

   MODEL LAYER BOTTOM EL. =   0.00000     FOR LAYER  40


 STRESS PERIOD     LENGTH       TIME STEPS     MULTIPLIER FOR DELT    SS FLAG
 ----------------------------------------------------------------------------
        1         10.00000         10                    1.000         TR
        2         10.00000         10                    1.000         TR
        3         10.00000         10                    1.000         TR

 TRANSIENT SIMULATION



 
 THE FREE FORMAT OPTION HAS BEEN SELECTED



                     BOUNDARY ARRAY FOR LAYER   1
 READING ON UNIT    7 WITH FORMAT: (FREE)              



                     BOUNDARY ARRAY FOR LAYER   2
 READING ON UNIT    7 WITH FORMAT: (FREE)              



                     BOUNDARY ARRAY FOR LAYER   3
 READING ON UNIT    7 WITH FORMAT: (FREE)              



                     BOUNDARY ARRAY FOR LAYER   4
 READING ON UNIT    7 WITH FORMAT: (FREE)              



                     BOUNDARY ARRAY FOR LAYER   5
 READING ON UNIT    7 WITH FORMAT: (FREE)              



                     BOUNDARY ARRAY FOR LAYER   6
 READING ON UNIT    7 WITH FORMAT: (FREE)              



                     BOUNDARY ARRAY FOR LAYER   7
 READING ON UNIT    7 WITH FORMAT: (FREE)              



                     BOUNDARY ARRAY FOR LAYER   8
 READING ON UNIT    7 WITH FORMAT: (FREE)              



                     BOUNDARY ARRAY FOR LAYER   9
 READING ON UNIT    7 WITH FORMAT: (FREE)              



                     BOUNDARY ARRAY FOR LAYER  10
 READING ON UNIT    7 WITH FORMAT: (FREE)              



                     BOUNDARY ARRAY FOR LAYER  11
 READING ON UNIT    7 WITH FORMAT: (FREE)              



                     BOUNDARY ARRAY FOR LAYER  12
 READING ON UNIT    7 WITH FORMAT: (FREE)              



                     BOUNDARY ARRAY FOR LAYER  13
 READING ON UNIT    7 WITH FORMAT: (FREE)              



                     BOUNDARY ARRAY FOR LAYER  14
 READING ON UNIT    7 WITH FORMAT: (FREE)              



                     BOUNDARY ARRAY FOR LAYER  15
 READING ON UNIT    7 WITH FORMAT: (FREE)              



                     BOUNDARY ARRAY FOR LAYER  16
 READING ON UNIT    7 WITH FORMAT: (FREE)              



                     BOUNDARY ARRAY FOR LAYER  17
 READING ON UNIT    7 WITH FORMAT: (FREE)              



                     BOUNDARY ARRAY FOR LAYER  18
 READING ON UNIT    7 WITH FORMAT: (FREE)              



                     BOUNDARY ARRAY FOR LAYER  19
 READING ON UNIT    7 WITH FORMAT: (FREE)              



                     BOUNDARY ARRAY FOR LAYER  20
 READING ON UNIT    7 WITH FORMAT: (FREE)              



                     BOUNDARY ARRAY FOR LAYER  21
 READING ON UNIT    7 WITH FORMAT: (FREE)              



                     BOUNDARY ARRAY FOR LAYER  22
 READING ON UNIT    7 WITH FORMAT: (FREE)              



                     BOUNDARY ARRAY FOR LAYER  23
 READING ON UNIT    7 WITH FORMAT: (FREE)              



                     BOUNDARY ARRAY FOR LAYER  24
 READING ON UNIT    7 WITH FORMAT: (FREE)              



                     BOUNDARY ARRAY FOR LAYER  25
 READING ON UNIT    7 WITH FORMAT: (FREE)              



                     BOUNDARY ARRAY FOR LAYER  26
 READING ON UNIT    7 WITH FORMAT: (FREE)              



                     BOUNDARY ARRAY FOR LAYER  27
 READING ON UNIT    7 WITH FORMAT: (FREE)              



                     BOUNDARY ARRAY FOR LAYER  28
 READING ON UNIT    7 WITH FORMAT: (FREE)              



                     BOUNDARY ARRAY FOR LAYER  29
 READING ON UNIT    7 WITH FORMAT: (FREE)              



                     BOUNDARY ARRAY FOR LAYER  30
 READING ON UNIT    7 WITH FORMAT: (FREE)              



                     BOUNDARY ARRAY FOR LAYER  31
 READING ON UNIT    7 WITH FORMAT: (FREE)              



                     BOUNDARY ARRAY FOR LAYER  32
 READING ON UNIT    7 WITH FORMAT: (FREE)              



                     BOUNDARY ARRAY FOR LAYER  33
 READING ON UNIT    7 WITH FORMAT: (FREE)              



                     BOUNDARY ARRAY FOR LAYER  34
 READING ON UNIT    7 WITH FORMAT: (FREE)              



                     BOUNDARY ARRAY FOR LAYER  35
 READING ON UNIT    7 WITH FORMAT: (FREE)              



                     BOUNDARY ARRAY FOR LAYER  36
 READING ON UNIT    7 WITH FORMAT: (FREE)              



                     BOUNDARY ARRAY FOR LAYER  37
 READING ON UNIT    7 WITH FORMAT: (FREE)              



                     BOUNDARY ARRAY FOR LAYER  38
 READING ON UNIT    7 WITH FORMAT: (FREE)              



                     BOUNDARY ARRAY FOR LAYER  39
 READING ON UNIT    7 WITH FORMAT: (FREE)              

           BOUNDARY ARRAY =              1 FOR LAYER  40

 AQUIFER HEAD WILL BE SET TO  -9999.0     AT ALL NO-FLOW NODES (IBOUND=0).

             INITIAL HEAD =   38.0000     FOR LAYER   1

             INITIAL HEAD =   38.0000     FOR LAYER   2

             INITIAL HEAD =   38.0000     FOR LAYER   3

             INITIAL HEAD =   38.0000     FOR LAYER   4

             INITIAL HEAD =   38.0000     FOR LAYER   5

             INITIAL HEAD =   38.0000     FOR LAYER   6

             INITIAL HEAD =   38.0000     FOR LAYER   7

             INITIAL HEAD =   38.0000     FOR LAYER   8

             INITIAL HEAD =   38.0000     FOR LAYER   9

             INITIAL HEAD =   38.0000     FOR LAYER  10

             INITIAL HEAD =   38.0000     FOR LAYER  11

             INITIAL HEAD =   38.0000     FOR LAYER  12

             INITIAL HEAD =   38.0000     FOR LAYER  13

             INITIAL HEAD =   38.0000     FOR LAYER  14

             INITIAL HEAD =   38.0000     FOR LAYER  15

             INITIAL HEAD =   38.0000     FOR LAYER  16

             INITIAL HEAD =   38.0000     FOR LAYER  17

             INITIAL HEAD =   38.0000     FOR LAYER  18

             INITIAL HEAD =   38.0000     FOR LAYER  19

             INITIAL HEAD =   38.0000     FOR LAYER  20

             INITIAL HEAD =   38.0000     FOR LAYER  21

             INITIAL HEAD =   38.0000     FOR LAYER  22

             INITIAL HEAD =   38.0000     FOR LAYER  23

             INITIAL HEAD =   38.0000     FOR LAYER  24

             INITIAL HEAD =   38.0000     FOR LAYER  25

             INITIAL HEAD =   38.0000     FOR LAYER  26

             INITIAL HEAD =   38.0000     FOR LAYER  27

             INITIAL HEAD =   38.0000     FOR LAYER  28

             INITIAL HEAD =   38.0000     FOR LAYER  29

             INITIAL HEAD =   38.0000     FOR LAYER  30

             INITIAL HEAD =   38.0000     FOR LAYER  31

             INITIAL HEAD =   38.0000     FOR LAYER  32

             INITIAL HEAD =   38.0000     FOR LAYER  33

             INITIAL HEAD =   38.0000     FOR LAYER  34

             INITIAL HEAD =   38.0000     FOR LAYER  35

             INITIAL HEAD =   38.0000     FOR LAYER  36

             INITIAL HEAD =   38.0000     FOR LAYER  37

             INITIAL HEAD =   38.0000     FOR LAYER  38

             INITIAL HEAD =   38.0000     FOR LAYER  39

             INITIAL HEAD =   38.0000     FOR LAYER  40

 OUTPUT CONTROL IS SPECIFIED ONLY AT TIME STEPS FOR WHICH OUTPUT IS DESIRED
 COMPACT CELL-BY-CELL BUDGET FILES WILL BE WRITTEN
 AUXILIARY DATA WILL BE SAVED IN CELL-BY-CELL BUDGET FILES
 HEAD PRINT FORMAT CODE IS   0    DRAWDOWN PRINT FORMAT CODE IS   0
 HEADS WILL BE SAVED ON UNIT    2    DRAWDOWNS WILL BE SAVED ON UNIT   13
 #

 NWT1 -- Newton Solver, VERSION 1.2.0, 3/01/2020
         INPUT READ FROM UNIT 14

 SIMPLE OPTION:
 DEFAULT SOLVER INPUT VALUES REFLECT NEARLY LINEAR MODEL
 ***XMD linear solver will be used***
 
   CONVERGENCE CRITERION OF   0.100000E-03 FOR HEAD SOLUTION
   AND A TOLERANCE OF   0.100000E-03 FOR FLOW SOLUTION AND 
   A MAXIMUM OF 50000 OUTER ITERATIONS. 


   D-B-D REDUCTION FACTOR OF    0.970000E+00 AND 
   A D-B-D INCREASE FACTOR OF    0.100000E-03 AND 
   A D-B-D RELAXATION OF    0.000000E+00 AND 
   A MOMENTUM FACTOR OF    0.000000E+00 .


 ***BACKTRACKING IS INACTIVE***
 XMD -- LINEAR SOLUTION BY XMD PACKAGE VERSION 1.30
     BY MOTOMU IBARAKI, OHIO STATE UNIVERSITY, COLOMBUS, OH
                 INPUT READ FROM UNIT 14
 ACCELERATION METHOD                    (IACL) =         1
 NODE ORDERING FLAG                   (NORDER) =         0
 LEVEL OF FILL                         (LEVEL) =         1
 MAXIMUM NUMBER OF ORTHOGONALIZATIONS  (NORTH) =         5
 INDEX FOR USING REDUCED SYSTEM      (IREDSYS) =         1
 RESID. REDUCTION CONVERGE CRITERION  (RRCTOL) =  0.000000E+00
 INDEX FOR USING DROP TOLERANCE     (IDROPTOL) =         1
 DROP TOLERANCE VALUE                  (EPSRN) =  0.500000E-02
 CONVERGENCE CRITERIA OF           (HCLOSEXMD) =  0.100000E-02
 MAX. NUMBER OF LINEAR ITERATIONS  (MXITERXMD) =        50


 UPW1 -- UPSTREAM WEIGHTING FLOW PACKAGE, VERSION 1.2.0, 3/01/2020
         INPUT READ FROM UNIT  3

 CELL-BY-CELL FLOWS WILL BE SAVED ON UNIT   40
 No named parameters

   LAYER FLAGS:
 LAYER       LAYTYP          LAYAVG    CHANI           LAYVKA           LAYWET
 ---------------------------------------------------------------------------
    1             1             0    -1.000E+00             1             0
    2             1             0    -1.000E+00             1             0
    3             1             0    -1.000E+00             1             0
    4             1             0    -1.000E+00             1             0
    5             1             0    -1.000E+00             1             0
    6             1             0    -1.000E+00             1             0
    7             1             0    -1.000E+00             1             0
    8             1             0    -1.000E+00             1             0
    9             1             0    -1.000E+00             1             0
   10             1             0    -1.000E+00             1             0
   11             1             0    -1.000E+00             1             0
   12             1             0    -1.000E+00             1             0
   13             1             0    -1.000E+00             1             0
   14             1             0    -1.000E+00             1             0
   15             1             0    -1.000E+00             1             0
   16             1             0    -1.000E+00             1             0
   17             1             0    -1.000E+00             1             0
   18             1             0    -1.000E+00             1             0
   19             1             0    -1.000E+00             1             0
   20             1             0    -1.000E+00             1             0
   21             1             0    -1.000E+00             1             0
   22             1             0    -1.000E+00             1             0
   23             1             0    -1.000E+00             1             0
   24             1             0    -1.000E+00             1             0
   25             1             0    -1.000E+00             1             0
   26             1             0    -1.000E+00             1             0
   27             1             0    -1.000E+00             1             0
   28             1             0    -1.000E+00             1             0
   29             1             0    -1.000E+00             1             0
   30             1             0    -1.000E+00             1             0
   31             1             0    -1.000E+00             1             0
   32             1             0    -1.000E+00             1             0
   33             1             0    -1.000E+00             1             0
   34             1             0    -1.000E+00             1             0
   35             1             0    -1.000E+00             1             0
   36             1             0    -1.000E+00             1             0
   37             1             0    -1.000E+00             1             0
   38             1             0    -1.000E+00             1             0
   39             1             0    -1.000E+00             1             0
   40             1             0    -1.000E+00             1             0

   INTERPRETATION OF LAYER FLAGS:
                        INTERBLOCK     HORIZONTAL    DATA IN
         LAYER TYPE   TRANSMISSIVITY   ANISOTROPY   ARRAY VKA   WETTABILITY
 LAYER   (LAYTYP)        (LAYAVG)      (CHANI)     (LAYVKA)       (LAYWET)
 ---------------------------------------------------------------------------
    1   CONVERTIBLE      HARMONIC      VARIABLE    ANISOTROPY  NON-WETTABLE
    2   CONVERTIBLE      HARMONIC      VARIABLE    ANISOTROPY  NON-WETTABLE
    3   CONVERTIBLE      HARMONIC      VARIABLE    ANISOTROPY  NON-WETTABLE
    4   CONVERTIBLE      HARMONIC      VARIABLE    ANISOTROPY  NON-WETTABLE
    5   CONVERTIBLE      HARMONIC      VARIABLE    ANISOTROPY  NON-WETTABLE
    6   CONVERTIBLE      HARMONIC      VARIABLE    ANISOTROPY  NON-WETTABLE
    7   CONVERTIBLE      HARMONIC      VARIABLE    ANISOTROPY  NON-WETTABLE
    8   CONVERTIBLE      HARMONIC      VARIABLE    ANISOTROPY  NON-WETTABLE
    9   CONVERTIBLE      HARMONIC      VARIABLE    ANISOTROPY  NON-WETTABLE
   10   CONVERTIBLE      HARMONIC      VARIABLE    ANISOTROPY  NON-WETTABLE
   11   CONVERTIBLE      HARMONIC      VARIABLE    ANISOTROPY  NON-WETTABLE
   12   CONVERTIBLE      HARMONIC      VARIABLE    ANISOTROPY  NON-WETTABLE
   13   CONVERTIBLE      HARMONIC      VARIABLE    ANISOTROPY  NON-WETTABLE
   14   CONVERTIBLE      HARMONIC      VARIABLE    ANISOTROPY  NON-WETTABLE
   15   CONVERTIBLE      HARMONIC      VARIABLE    ANISOTROPY  NON-WETTABLE
   16   CONVERTIBLE      HARMONIC      VARIABLE    ANISOTROPY  NON-WETTABLE
   17   CONVERTIBLE      HARMONIC      VARIABLE    ANISOTROPY  NON-WETTABLE
   18   CONVERTIBLE      HARMONIC      VARIABLE    ANISOTROPY  NON-WETTABLE
   19   CONVERTIBLE      HARMONIC      VARIABLE    ANISOTROPY  NON-WETTABLE
   20   CONVERTIBLE      HARMONIC      VARIABLE    ANISOTROPY  NON-WETTABLE
   21   CONVERTIBLE      HARMONIC      VARIABLE    ANISOTROPY  NON-WETTABLE
   22   CONVERTIBLE      HARMONIC      VARIABLE    ANISOTROPY  NON-WETTABLE
   23   CONVERTIBLE      HARMONIC      VARIABLE    ANISOTROPY  NON-WETTABLE
   24   CONVERTIBLE      HARMONIC      VARIABLE    ANISOTROPY  NON-WETTABLE
   25   CONVERTIBLE      HARMONIC      VARIABLE    ANISOTROPY  NON-WETTABLE
   26   CONVERTIBLE      HARMONIC      VARIABLE    ANISOTROPY  NON-WETTABLE
   27   CONVERTIBLE      HARMONIC      VARIABLE    ANISOTROPY  NON-WETTABLE
   28   CONVERTIBLE      HARMONIC      VARIABLE    ANISOTROPY  NON-WETTABLE
   29   CONVERTIBLE      HARMONIC      VARIABLE    ANISOTROPY  NON-WETTABLE
   30   CONVERTIBLE      HARMONIC      VARIABLE    ANISOTROPY  NON-WETTABLE
   31   CONVERTIBLE      HARMONIC      VARIABLE    ANISOTROPY  NON-WETTABLE
   32   CONVERTIBLE      HARMONIC      VARIABLE    ANISOTROPY  NON-WETTABLE
   33   CONVERTIBLE      HARMONIC      VARIABLE    ANISOTROPY  NON-WETTABLE
   34   CONVERTIBLE      HARMONIC      VARIABLE    ANISOTROPY  NON-WETTABLE
   35   CONVERTIBLE      HARMONIC      VARIABLE    ANISOTROPY  NON-WETTABLE
   36   CONVERTIBLE      HARMONIC      VARIABLE    ANISOTROPY  NON-WETTABLE
   37   CONVERTIBLE      HARMONIC      VARIABLE    ANISOTROPY  NON-WETTABLE
   38   CONVERTIBLE      HARMONIC      VARIABLE    ANISOTROPY  NON-WETTABLE
   39   CONVERTIBLE      HARMONIC      VARIABLE    ANISOTROPY  NON-WETTABLE
   40   CONVERTIBLE      HARMONIC      VARIABLE    ANISOTROPY  NON-WETTABLE



              HYD. COND. ALONG ROWS FOR LAYER   1
 READING ON UNIT    3 WITH FORMAT: (FREE)              

   HORIZ. ANI. (COL./ROW) =   1.00000     FOR LAYER   1



            HORIZ. TO VERTICAL ANI. FOR LAYER   1
 READING ON UNIT    3 WITH FORMAT: (FREE)              



                   SPECIFIC STORAGE FOR LAYER   1
 READING ON UNIT    3 WITH FORMAT: (FREE)              



                     SPECIFIC YIELD FOR LAYER   1
 READING ON UNIT    3 WITH FORMAT: (FREE)              



              HYD. COND. ALONG ROWS FOR LAYER   2
 READING ON UNIT    3 WITH FORMAT: (FREE)              

   HORIZ. ANI. (COL./ROW) =   1.00000     FOR LAYER   2



            HORIZ. TO VERTICAL ANI. FOR LAYER   2
 READING ON UNIT    3 WITH FORMAT: (FREE)              



                   SPECIFIC STORAGE FOR LAYER   2
 READING ON UNIT    3 WITH FORMAT: (FREE)              



                     SPECIFIC YIELD FOR LAYER   2
 READING ON UNIT    3 WITH FORMAT: (FREE)              



              HYD. COND. ALONG ROWS FOR LAYER   3
 READING ON UNIT    3 WITH FORMAT: (FREE)              

   HORIZ. ANI. (COL./ROW) =   1.00000     FOR LAYER   3



            HORIZ. TO VERTICAL ANI. FOR LAYER   3
 READING ON UNIT    3 WITH FORMAT: (FREE)              



                   SPECIFIC STORAGE FOR LAYER   3
 READING ON UNIT    3 WITH FORMAT: (FREE)              



                     SPECIFIC YIELD FOR LAYER   3
 READING ON UNIT    3 WITH FORMAT: (FREE)              



              HYD. COND. ALONG ROWS FOR LAYER   4
 READING ON UNIT    3 WITH FORMAT: (FREE)              

   HORIZ. ANI. (COL./ROW) =   1.00000     FOR LAYER   4



            HORIZ. TO VERTICAL ANI. FOR LAYER   4
 READING ON UNIT    3 WITH FORMAT: (FREE)              



                   SPECIFIC STORAGE FOR LAYER   4
 READING ON UNIT    3 WITH FORMAT: (FREE)              



                     SPECIFIC YIELD FOR LAYER   4
 READING ON UNIT    3 WITH FORMAT: (FREE)              



              HYD. COND. ALONG ROWS FOR LAYER   5
 READING ON UNIT    3 WITH FORMAT: (FREE)              

   HORIZ. ANI. (COL./ROW) =   1.00000     FOR LAYER   5



            HORIZ. TO VERTICAL ANI. FOR LAYER   5
 READING ON UNIT    3 WITH FORMAT: (FREE)              



                   SPECIFIC STORAGE FOR LAYER   5
 READING ON UNIT    3 WITH FORMAT: (FREE)              



                     SPECIFIC YIELD FOR LAYER   5
 READING ON UNIT    3 WITH FORMAT: (FREE)              



              HYD. COND. ALONG ROWS FOR LAYER   6
 READING ON UNIT    3 WITH FORMAT: (FREE)              

   HORIZ. ANI. (COL./ROW) =   1.00000     FOR LAYER   6



            HORIZ. TO VERTICAL ANI. FOR LAYER   6
 READING ON UNIT    3 WITH FORMAT: (FREE)              



                   SPECIFIC STORAGE FOR LAYER   6
 READING ON UNIT    3 WITH FORMAT: (FREE)              



                     SPECIFIC YIELD FOR LAYER   6
 READING ON UNIT    3 WITH FORMAT: (FREE)              



              HYD. COND. ALONG ROWS FOR LAYER   7
 READING ON UNIT    3 WITH FORMAT: (FREE)              

   HORIZ. ANI. (COL./ROW) =   1.00000     FOR LAYER   7



            HORIZ. TO VERTICAL ANI. FOR LAYER   7
 READING ON UNIT    3 WITH FORMAT: (FREE)              



                   SPECIFIC STORAGE FOR LAYER   7
 READING ON UNIT    3 WITH FORMAT: (FREE)              



                     SPECIFIC YIELD FOR LAYER   7
 READING ON UNIT    3 WITH FORMAT: (FREE)              



              HYD. COND. ALONG ROWS FOR LAYER   8
 READING ON UNIT    3 WITH FORMAT: (FREE)              

   HORIZ. ANI. (COL./ROW) =   1.00000     FOR LAYER   8



            HORIZ. TO VERTICAL ANI. FOR LAYER   8
 READING ON UNIT    3 WITH FORMAT: (FREE)              



                   SPECIFIC STORAGE FOR LAYER   8
 READING ON UNIT    3 WITH FORMAT: (FREE)              



                     SPECIFIC YIELD FOR LAYER   8
 READING ON UNIT    3 WITH FORMAT: (FREE)              



              HYD. COND. ALONG ROWS FOR LAYER   9
 READING ON UNIT    3 WITH FORMAT: (FREE)              

   HORIZ. ANI. (COL./ROW) =   1.00000     FOR LAYER   9



            HORIZ. TO VERTICAL ANI. FOR LAYER   9
 READING ON UNIT    3 WITH FORMAT: (FREE)              



                   SPECIFIC STORAGE FOR LAYER   9
 READING ON UNIT    3 WITH FORMAT: (FREE)              



                     SPECIFIC YIELD FOR LAYER   9
 READING ON UNIT    3 WITH FORMAT: (FREE)              



              HYD. COND. ALONG ROWS FOR LAYER  10
 READING ON UNIT    3 WITH FORMAT: (FREE)              

   HORIZ. ANI. (COL./ROW) =   1.00000     FOR LAYER  10



            HORIZ. TO VERTICAL ANI. FOR LAYER  10
 READING ON UNIT    3 WITH FORMAT: (FREE)              



                   SPECIFIC STORAGE FOR LAYER  10
 READING ON UNIT    3 WITH FORMAT: (FREE)              



                     SPECIFIC YIELD FOR LAYER  10
 READING ON UNIT    3 WITH FORMAT: (FREE)              



              HYD. COND. ALONG ROWS FOR LAYER  11
 READING ON UNIT    3 WITH FORMAT: (FREE)              

   HORIZ. ANI. (COL./ROW) =   1.00000     FOR LAYER  11



            HORIZ. TO VERTICAL ANI. FOR LAYER  11
 READING ON UNIT    3 WITH FORMAT: (FREE)              



                   SPECIFIC STORAGE FOR LAYER  11
 READING ON UNIT    3 WITH FORMAT: (FREE)              



                     SPECIFIC YIELD FOR LAYER  11
 READING ON UNIT    3 WITH FORMAT: (FREE)              



              HYD. COND. ALONG ROWS FOR LAYER  12
 READING ON UNIT    3 WITH FORMAT: (FREE)              

   HORIZ. ANI. (COL./ROW) =   1.00000     FOR LAYER  12



            HORIZ. TO VERTICAL ANI. FOR LAYER  12
 READING ON UNIT    3 WITH FORMAT: (FREE)              



                   SPECIFIC STORAGE FOR LAYER  12
 READING ON UNIT    3 WITH FORMAT: (FREE)              



                     SPECIFIC YIELD FOR LAYER  12
 READING ON UNIT    3 WITH FORMAT: (FREE)              



              HYD. COND. ALONG ROWS FOR LAYER  13
 READING ON UNIT    3 WITH FORMAT: (FREE)              

   HORIZ. ANI. (COL./ROW) =   1.00000     FOR LAYER  13



            HORIZ. TO VERTICAL ANI. FOR LAYER  13
 READING ON UNIT    3 WITH FORMAT: (FREE)              



                   SPECIFIC STORAGE FOR LAYER  13
 READING ON UNIT    3 WITH FORMAT: (FREE)              



                     SPECIFIC YIELD FOR LAYER  13
 READING ON UNIT    3 WITH FORMAT: (FREE)              



              HYD. COND. ALONG ROWS FOR LAYER  14
 READING ON UNIT    3 WITH FORMAT: (FREE)              

   HORIZ. ANI. (COL./ROW) =   1.00000     FOR LAYER  14



            HORIZ. TO VERTICAL ANI. FOR LAYER  14
 READING ON UNIT    3 WITH FORMAT: (FREE)              



                   SPECIFIC STORAGE FOR LAYER  14
 READING ON UNIT    3 WITH FORMAT: (FREE)              



                     SPECIFIC YIELD FOR LAYER  14
 READING ON UNIT    3 WITH FORMAT: (FREE)              



              HYD. COND. ALONG ROWS FOR LAYER  15
 READING ON UNIT    3 WITH FORMAT: (FREE)              

   HORIZ. ANI. (COL./ROW) =   1.00000     FOR LAYER  15



            HORIZ. TO VERTICAL ANI. FOR LAYER  15
 READING ON UNIT    3 WITH FORMAT: (FREE)              



                   SPECIFIC STORAGE FOR LAYER  15
 READING ON UNIT    3 WITH FORMAT: (FREE)              



                     SPECIFIC YIELD FOR LAYER  15
 READING ON UNIT    3 WITH FORMAT: (FREE)              



              HYD. COND. ALONG ROWS FOR LAYER  16
 READING ON UNIT    3 WITH FORMAT: (FREE)              

   HORIZ. ANI. (COL./ROW) =   1.00000     FOR LAYER  16



            HORIZ. TO VERTICAL ANI. FOR LAYER  16
 READING ON UNIT    3 WITH FORMAT: (FREE)              



                   SPECIFIC STORAGE FOR LAYER  16
 READING ON UNIT    3 WITH FORMAT: (FREE)              



                     SPECIFIC YIELD FOR LAYER  16
 READING ON UNIT    3 WITH FORMAT: (FREE)              



              HYD. COND. ALONG ROWS FOR LAYER  17
 READING ON UNIT    3 WITH FORMAT: (FREE)              

   HORIZ. ANI. (COL./ROW) =   1.00000     FOR LAYER  17



            HORIZ. TO VERTICAL ANI. FOR LAYER  17
 READING ON UNIT    3 WITH FORMAT: (FREE)              



                   SPECIFIC STORAGE FOR LAYER  17
 READING ON UNIT    3 WITH FORMAT: (FREE)              



                     SPECIFIC YIELD FOR LAYER  17
 READING ON UNIT    3 WITH FORMAT: (FREE)              



              HYD. COND. ALONG ROWS FOR LAYER  18
 READING ON UNIT    3 WITH FORMAT: (FREE)              

   HORIZ. ANI. (COL./ROW) =   1.00000     FOR LAYER  18



            HORIZ. TO VERTICAL ANI. FOR LAYER  18
 READING ON UNIT    3 WITH FORMAT: (FREE)              



                   SPECIFIC STORAGE FOR LAYER  18
 READING ON UNIT    3 WITH FORMAT: (FREE)              



                     SPECIFIC YIELD FOR LAYER  18
 READING ON UNIT    3 WITH FORMAT: (FREE)              



              HYD. COND. ALONG ROWS FOR LAYER  19
 READING ON UNIT    3 WITH FORMAT: (FREE)              

   HORIZ. ANI. (COL./ROW) =   1.00000     FOR LAYER  19



            HORIZ. TO VERTICAL ANI. FOR LAYER  19
 READING ON UNIT    3 WITH FORMAT: (FREE)              



                   SPECIFIC STORAGE FOR LAYER  19
 READING ON UNIT    3 WITH FORMAT: (FREE)              



                     SPECIFIC YIELD FOR LAYER  19
 READING ON UNIT    3 WITH FORMAT: (FREE)              



              HYD. COND. ALONG ROWS FOR LAYER  20
 READING ON UNIT    3 WITH FORMAT: (FREE)              

   HORIZ. ANI. (COL./ROW) =   1.00000     FOR LAYER  20



            HORIZ. TO VERTICAL ANI. FOR LAYER  20
 READING ON UNIT    3 WITH FORMAT: (FREE)              



                   SPECIFIC STORAGE FOR LAYER  20
 READING ON UNIT    3 WITH FORMAT: (FREE)              



                     SPECIFIC YIELD FOR LAYER  20
 READING ON UNIT    3 WITH FORMAT: (FREE)              



              HYD. COND. ALONG ROWS FOR LAYER  21
 READING ON UNIT    3 WITH FORMAT: (FREE)              

   HORIZ. ANI. (COL./ROW) =   1.00000     FOR LAYER  21



            HORIZ. TO VERTICAL ANI. FOR LAYER  21
 READING ON UNIT    3 WITH FORMAT: (FREE)              



                   SPECIFIC STORAGE FOR LAYER  21
 READING ON UNIT    3 WITH FORMAT: (FREE)              



                     SPECIFIC YIELD FOR LAYER  21
 READING ON UNIT    3 WITH FORMAT: (FREE)              



              HYD. COND. ALONG ROWS FOR LAYER  22
 READING ON UNIT    3 WITH FORMAT: (FREE)              

   HORIZ. ANI. (COL./ROW) =   1.00000     FOR LAYER  22



            HORIZ. TO VERTICAL ANI. FOR LAYER  22
 READING ON UNIT    3 WITH FORMAT: (FREE)              



                   SPECIFIC STORAGE FOR LAYER  22
 READING ON UNIT    3 WITH FORMAT: (FREE)              



                     SPECIFIC YIELD FOR LAYER  22
 READING ON UNIT    3 WITH FORMAT: (FREE)              



              HYD. COND. ALONG ROWS FOR LAYER  23
 READING ON UNIT    3 WITH FORMAT: (FREE)              

   HORIZ. ANI. (COL./ROW) =   1.00000     FOR LAYER  23



            HORIZ. TO VERTICAL ANI. FOR LAYER  23
 READING ON UNIT    3 WITH FORMAT: (FREE)              



                   SPECIFIC STORAGE FOR LAYER  23
 READING ON UNIT    3 WITH FORMAT: (FREE)              



                     SPECIFIC YIELD FOR LAYER  23
 READING ON UNIT    3 WITH FORMAT: (FREE)              



              HYD. COND. ALONG ROWS FOR LAYER  24
 READING ON UNIT    3 WITH FORMAT: (FREE)              

   HORIZ. ANI. (COL./ROW) =   1.00000     FOR LAYER  24



            HORIZ. TO VERTICAL ANI. FOR LAYER  24
 READING ON UNIT    3 WITH FORMAT: (FREE)              



                   SPECIFIC STORAGE FOR LAYER  24
 READING ON UNIT    3 WITH FORMAT: (FREE)              



                     SPECIFIC YIELD FOR LAYER  24
 READING ON UNIT    3 WITH FORMAT: (FREE)              



              HYD. COND. ALONG ROWS FOR LAYER  25
 READING ON UNIT    3 WITH FORMAT: (FREE)              

   HORIZ. ANI. (COL./ROW) =   1.00000     FOR LAYER  25



            HORIZ. TO VERTICAL ANI. FOR LAYER  25
 READING ON UNIT    3 WITH FORMAT: (FREE)              



                   SPECIFIC STORAGE FOR LAYER  25
 READING ON UNIT    3 WITH FORMAT: (FREE)              



                     SPECIFIC YIELD FOR LAYER  25
 READING ON UNIT    3 WITH FORMAT: (FREE)              



              HYD. COND. ALONG ROWS FOR LAYER  26
 READING ON UNIT    3 WITH FORMAT: (FREE)              

   HORIZ. ANI. (COL./ROW) =   1.00000     FOR LAYER  26



            HORIZ. TO VERTICAL ANI. FOR LAYER  26
 READING ON UNIT    3 WITH FORMAT: (FREE)              



                   SPECIFIC STORAGE FOR LAYER  26
 READING ON UNIT    3 WITH FORMAT: (FREE)              



                     SPECIFIC YIELD FOR LAYER  26
 READING ON UNIT    3 WITH FORMAT: (FREE)              



              HYD. COND. ALONG ROWS FOR LAYER  27
 READING ON UNIT    3 WITH FORMAT: (FREE)              

   HORIZ. ANI. (COL./ROW) =   1.00000     FOR LAYER  27



            HORIZ. TO VERTICAL ANI. FOR LAYER  27
 READING ON UNIT    3 WITH FORMAT: (FREE)              



                   SPECIFIC STORAGE FOR LAYER  27
 READING ON UNIT    3 WITH FORMAT: (FREE)              



                     SPECIFIC YIELD FOR LAYER  27
 READING ON UNIT    3 WITH FORMAT: (FREE)              



              HYD. COND. ALONG ROWS FOR LAYER  28
 READING ON UNIT    3 WITH FORMAT: (FREE)              

   HORIZ. ANI. (COL./ROW) =   1.00000     FOR LAYER  28



            HORIZ. TO VERTICAL ANI. FOR LAYER  28
 READING ON UNIT    3 WITH FORMAT: (FREE)              



                   SPECIFIC STORAGE FOR LAYER  28
 READING ON UNIT    3 WITH FORMAT: (FREE)              



                     SPECIFIC YIELD FOR LAYER  28
 READING ON UNIT    3 WITH FORMAT: (FREE)              



              HYD. COND. ALONG ROWS FOR LAYER  29
 READING ON UNIT    3 WITH FORMAT: (FREE)              

   HORIZ. ANI. (COL./ROW) =   1.00000     FOR LAYER  29



            HORIZ. TO VERTICAL ANI. FOR LAYER  29
 READING ON UNIT    3 WITH FORMAT: (FREE)              



                   SPECIFIC STORAGE FOR LAYER  29
 READING ON UNIT    3 WITH FORMAT: (FREE)              



                     SPECIFIC YIELD FOR LAYER  29
 READING ON UNIT    3 WITH FORMAT: (FREE)              



              HYD. COND. ALONG ROWS FOR LAYER  30
 READING ON UNIT    3 WITH FORMAT: (FREE)              

   HORIZ. ANI. (COL./ROW) =   1.00000     FOR LAYER  30



            HORIZ. TO VERTICAL ANI. FOR LAYER  30
 READING ON UNIT    3 WITH FORMAT: (FREE)              



                   SPECIFIC STORAGE FOR LAYER  30
 READING ON UNIT    3 WITH FORMAT: (FREE)              



                     SPECIFIC YIELD FOR LAYER  30
 READING ON UNIT    3 WITH FORMAT: (FREE)              



              HYD. COND. ALONG ROWS FOR LAYER  31
 READING ON UNIT    3 WITH FORMAT: (FREE)              

   HORIZ. ANI. (COL./ROW) =   1.00000     FOR LAYER  31



            HORIZ. TO VERTICAL ANI. FOR LAYER  31
 READING ON UNIT    3 WITH FORMAT: (FREE)              



                   SPECIFIC STORAGE FOR LAYER  31
 READING ON UNIT    3 WITH FORMAT: (FREE)              



                     SPECIFIC YIELD FOR LAYER  31
 READING ON UNIT    3 WITH FORMAT: (FREE)              



              HYD. COND. ALONG ROWS FOR LAYER  32
 READING ON UNIT    3 WITH FORMAT: (FREE)              

   HORIZ. ANI. (COL./ROW) =   1.00000     FOR LAYER  32



            HORIZ. TO VERTICAL ANI. FOR LAYER  32
 READING ON UNIT    3 WITH FORMAT: (FREE)              



                   SPECIFIC STORAGE FOR LAYER  32
 READING ON UNIT    3 WITH FORMAT: (FREE)              



                     SPECIFIC YIELD FOR LAYER  32
 READING ON UNIT    3 WITH FORMAT: (FREE)              



              HYD. COND. ALONG ROWS FOR LAYER  33
 READING ON UNIT    3 WITH FORMAT: (FREE)              

   HORIZ. ANI. (COL./ROW) =   1.00000     FOR LAYER  33



            HORIZ. TO VERTICAL ANI. FOR LAYER  33
 READING ON UNIT    3 WITH FORMAT: (FREE)              



                   SPECIFIC STORAGE FOR LAYER  33
 READING ON UNIT    3 WITH FORMAT: (FREE)              



                     SPECIFIC YIELD FOR LAYER  33
 READING ON UNIT    3 WITH FORMAT: (FREE)              



              HYD. COND. ALONG ROWS FOR LAYER  34
 READING ON UNIT    3 WITH FORMAT: (FREE)              

   HORIZ. ANI. (COL./ROW) =   1.00000     FOR LAYER  34



            HORIZ. TO VERTICAL ANI. FOR LAYER  34
 READING ON UNIT    3 WITH FORMAT: (FREE)              



                   SPECIFIC STORAGE FOR LAYER  34
 READING ON UNIT    3 WITH FORMAT: (FREE)              



                     SPECIFIC YIELD FOR LAYER  34
 READING ON UNIT    3 WITH FORMAT: (FREE)              



              HYD. COND. ALONG ROWS FOR LAYER  35
 READING ON UNIT    3 WITH FORMAT: (FREE)              

   HORIZ. ANI. (COL./ROW) =   1.00000     FOR LAYER  35



            HORIZ. TO VERTICAL ANI. FOR LAYER  35
 READING ON UNIT    3 WITH FORMAT: (FREE)              



                   SPECIFIC STORAGE FOR LAYER  35
 READING ON UNIT    3 WITH FORMAT: (FREE)              



                     SPECIFIC YIELD FOR LAYER  35
 READING ON UNIT    3 WITH FORMAT: (FREE)              



              HYD. COND. ALONG ROWS FOR LAYER  36
 READING ON UNIT    3 WITH FORMAT: (FREE)              

   HORIZ. ANI. (COL./ROW) =   1.00000     FOR LAYER  36



            HORIZ. TO VERTICAL ANI. FOR LAYER  36
 READING ON UNIT    3 WITH FORMAT: (FREE)              



                   SPECIFIC STORAGE FOR LAYER  36
 READING ON UNIT    3 WITH FORMAT: (FREE)              



                     SPECIFIC YIELD FOR LAYER  36
 READING ON UNIT    3 WITH FORMAT: (FREE)              



              HYD. COND. ALONG ROWS FOR LAYER  37
 READING ON UNIT    3 WITH FORMAT: (FREE)              

   HORIZ. ANI. (COL./ROW) =   1.00000     FOR LAYER  37



            HORIZ. TO VERTICAL ANI. FOR LAYER  37
 READING ON UNIT    3 WITH FORMAT: (FREE)              



                   SPECIFIC STORAGE FOR LAYER  37
 READING ON UNIT    3 WITH FORMAT: (FREE)              



                     SPECIFIC YIELD FOR LAYER  37
 READING ON UNIT    3 WITH FORMAT: (FREE)              



              HYD. COND. ALONG ROWS FOR LAYER  38
 READING ON UNIT    3 WITH FORMAT: (FREE)              

   HORIZ. ANI. (COL./ROW) =   1.00000     FOR LAYER  38



            HORIZ. TO VERTICAL ANI. FOR LAYER  38
 READING ON UNIT    3 WITH FORMAT: (FREE)              



                   SPECIFIC STORAGE FOR LAYER  38
 READING ON UNIT    3 WITH FORMAT: (FREE)              



                     SPECIFIC YIELD FOR LAYER  38
 READING ON UNIT    3 WITH FORMAT: (FREE)              



              HYD. COND. ALONG ROWS FOR LAYER  39
 READING ON UNIT    3 WITH FORMAT: (FREE)              

   HORIZ. ANI. (COL./ROW) =   1.00000     FOR LAYER  39



            HORIZ. TO VERTICAL ANI. FOR LAYER  39
 READING ON UNIT    3 WITH FORMAT: (FREE)              



                   SPECIFIC STORAGE FOR LAYER  39
 READING ON UNIT    3 WITH FORMAT: (FREE)              



                     SPECIFIC YIELD FOR LAYER  39
 READING ON UNIT    3 WITH FORMAT: (FREE)              

    HYD. COND. ALONG ROWS =   4.00000     FOR LAYER  40

   HORIZ. ANI. (COL./ROW) =   1.00000     FOR LAYER  40

  HORIZ. TO VERTICAL ANI. =   1.00000     FOR LAYER  40

         SPECIFIC STORAGE =  1.000000E-04 FOR LAYER  40

           SPECIFIC YIELD =  8.000000E-02 FOR LAYER  40

 DRN -- DRAIN PACKAGE, VERSION 7, 5/2/2005 INPUT READ FROM UNIT   10
 #
 No named parameters
 MAXIMUM OF     75 ACTIVE DRAINS AT ONE TIME
 CELL-BY-CELL FLOWS WILL BE SAVED ON UNIT   40
 AUXILIARY DRAIN VARIABLE: IFACE           
 AUXILIARY DRAIN VARIABLE: CONDFACT        
 AUXILIARY DRAIN VARIABLE: CELLGRP         


     0 Drain parameters

 GHB -- GENERAL-HEAD BOUNDARY PACKAGE, VERSION 7, 5/2/2005
         INPUT READ FROM UNIT   11
 #
 No named parameters
 MAXIMUM OF     38 ACTIVE GHB CELLS AT ONE TIME
 CELL-BY-CELL FLOWS WILL BE SAVED ON UNIT   40
 AUXILIARY GHB VARIABLE: IFACE           
 AUXILIARY GHB VARIABLE: CONDFACT        
 AUXILIARY GHB VARIABLE: CELLGRP         


     0 GHB parameters

 WARNING READING LMT PACKAGE INPUT DATA:
 [STANDARD] HEADER NO LONGER SUPPORTED; [EXTENDED] HEADER USED INSTEAD.


 ***Link-MT3DMS Package v7***
 OPENING LINK-MT3DMS OUTPUT FILE: case2.hff                                                                                                                                                                                               
 ON UNIT NUMBER:   333
 FILE TYPE: UNFORMATTED
 HEADER OPTION: EXTENDED
 ***Link-MT3DMS Package v7***

1
                            STRESS PERIOD NO.    1, LENGTH =   10.00000    
                            -----------------------------------------------

                              NUMBER OF TIME STEPS =    10

                               MULTIPLIER FOR DELT =     1.000

                            INITIAL TIME STEP SIZE =   1.000000    

 DRAIN NO.  LAYER   ROW   COL     DRAIN EL.  CONDUCTANCE         IFACE           CONDFACT        CELLGRP         
 ----------------------------------------------------------------------------------------------------------------
      1      3      1     26       37.50           1.000           6.000           0.000          -1.000    
      2      4      1     27       36.50           1.000           6.000           0.000          -1.000    
      3      4      1     28       36.50           1.000           6.000           0.000          -1.000    
      4      5      1     29       35.50           1.000           6.000           0.000          -1.000    
      5      5      1     30       35.50           1.000           6.000           0.000          -1.000    
      6      6      1     31       34.50           1.000           6.000           0.000          -1.000    
      7      6      1     32       34.50           1.000           6.000           0.000          -1.000    
      8      7      1     33       33.50           1.000           6.000           0.000          -1.000    
      9      7      1     34       33.50           1.000           6.000           0.000          -1.000    
     10      8      1     35       32.50           1.000           6.000           0.000          -1.000    
     11      8      1     36       32.50           1.000           6.000           0.000          -1.000    
     12      9      1     37       31.50           1.000           6.000           0.000          -1.000    
     13      9      1     38       31.50           1.000           6.000           0.000          -1.000    
     14     10      1     39       30.50           1.000           6.000           0.000          -1.000    
     15     10      1     40       30.50           1.000           6.000           0.000          -1.000    
     16     11      1     41       29.50           1.000           6.000           0.000          -1.000    
     17     11      1     42       29.50           1.000           6.000           0.000          -1.000    
     18     12      1     43       28.50           1.000           6.000           0.000          -1.000    
     19     12      1     44       28.50           1.000           6.000           0.000          -1.000    
     20     13      1     45       27.50           1.000           6.000           0.000          -1.000    
     21     13      1     46       27.50           1.000           6.000           0.000          -1.000    
     22     14      1     47       26.50           1.000           6.000           0.000          -1.000    
     23     14      1     48       26.50           1.000           6.000           0.000          -1.000    
     24     15      1     49       25.50           1.000           6.000           0.000          -1.000    
     25     15      1     50       25.50           1.000           6.000           0.000          -1.000    
     26     16      1     51       24.50           1.000           6.000           0.000          -1.000    
     27     16      1     52       24.50           1.000           6.000           0.000          -1.000    
     28     17      1     53       23.50           1.000           6.000           0.000          -1.000    
     29     17      1     54       23.50           1.000           6.000           0.000          -1.000    
     30     18      1     55       22.50           1.000           6.000           0.000          -1.000    
     31     18      1     56       22.50           1.000           6.000           0.000          -1.000    
     32     19      1     57       21.50           1.000           6.000           0.000          -1.000    
     33     19      1     58       21.50           1.000           6.000           0.000          -1.000    
     34     20      1     59       20.50           1.000           6.000           0.000          -1.000    
     35     20      1     60       20.50           1.000           6.000           0.000          -1.000    
     36     21      1     61       19.50           1.000           6.000           0.000          -1.000    
     37     21      1     62       19.50           1.000           6.000           0.000          -1.000    
     38     22      1     63       18.50           1.000           6.000           0.000          -1.000    
     39     22      1     64       18.50           1.000           6.000           0.000          -1.000    
     40     23      1     65       17.50           1.000           6.000           0.000          -1.000    
     41     23      1     66       17.50           1.000           6.000           0.000          -1.000    
     42     24      1     67       16.50           1.000           6.000           0.000          -1.000    
     43     24      1     68       16.50           1.000           6.000           0.000          -1.000    
     44     25      1     69       15.50           1.000           6.000           0.000          -1.000    
     45     25      1     70       15.50           1.000           6.000           0.000          -1.000    
     46     26      1     71       14.50           1.000           6.000           0.000          -1.000    
     47     26      1     72       14.50           1.000           6.000           0.000          -1.000    
     48     27      1     73       13.50           1.000           6.000           0.000          -1.000    
     49     27      1     74       13.50           1.000           6.000           0.000          -1.000    
     50     28      1     75       12.50           1.000           6.000           0.000          -1.000    
     51     28      1     76       12.50           1.000           6.000           0.000          -1.000    
     52     29      1     77       11.50           1.000           6.000           0.000          -1.000    
     53     29      1     78       11.50           1.000           6.000           0.000          -1.000    
     54     30      1     79       10.50           1.000           6.000           0.000          -1.000    
     55     30      1     80       10.50           1.000           6.000           0.000          -1.000    
     56     31      1     81       9.500           1.000           6.000           0.000          -1.000    
     57     31      1     82       9.500           1.000           6.000           0.000          -1.000    
     58     32      1     83       8.500           1.000           6.000           0.000          -1.000    
     59     32      1     84       8.500           1.000           6.000           0.000          -1.000    
     60     33      1     85       7.500           1.000           6.000           0.000          -1.000    
     61     33      1     86       7.500           1.000           6.000           0.000          -1.000    
     62     34      1     87       6.500           1.000           6.000           0.000          -1.000    
     63     34      1     88       6.500           1.000           6.000           0.000          -1.000    
     64     35      1     89       5.500           1.000           6.000           0.000          -1.000    
     65     35      1     90       5.500           1.000           6.000           0.000          -1.000    
     66     36      1     91       4.500           1.000           6.000           0.000          -1.000    
     67     36      1     92       4.500           1.000           6.000           0.000          -1.000    
     68     37      1     93       3.500           1.000           6.000           0.000          -1.000    
     69     37      1     94       3.500           1.000           6.000           0.000          -1.000    
     70     38      1     95       2.500           1.000           6.000           0.000          -1.000    
     71     38      1     96       2.500           1.000           6.000           0.000          -1.000    
     72     39      1     97       1.500           1.000           6.000           0.000          -1.000    
     73     39      1     98       1.500           1.000           6.000           0.000          -1.000    
     74     40      1     99      0.5000           1.000           6.000           0.000          -1.000    
     75     40      1    100      0.5000           1.000           6.000           0.000          -1.000    

     75 DRAINS

 BOUND. NO. LAYER   ROW   COL     STAGE      CONDUCTANCE         IFACE           CONDFACT        CELLGRP         
 ----------------------------------------------------------------------------------------------------------------
      1      3      1     13       38.00          0.1000E+05       6.000           0.000          -1.000    
      2      4      1     13       38.00          0.1000E+05       6.000           0.000          -1.000    
      3      5      1     12       38.00          0.1000E+05       6.000           0.000          -1.000    
      4      6      1     12       38.00          0.1000E+05       6.000           0.000          -1.000    
      5      7      1     12       38.00          0.1000E+05       6.000           0.000          -1.000    
      6      8      1     11       38.00          0.1000E+05       6.000           0.000          -1.000    
      7      9      1     11       38.00          0.1000E+05       6.000           0.000          -1.000    
      8     10      1     11       38.00          0.1000E+05       6.000           0.000          -1.000    
      9     11      1     10       38.00          0.1000E+05       6.000           0.000          -1.000    
     10     12      1     10       38.00          0.1000E+05       6.000           0.000          -1.000    
     11     13      1     10       38.00          0.1000E+05       6.000           0.000          -1.000    
     12     14      1      9       38.00          0.1000E+05       6.000           0.000          -1.000    
     13     15      1      9       38.00          0.1000E+05       6.000           0.000          -1.000    
     14     16      1      9       38.00          0.1000E+05       6.000           0.000          -1.000    
     15     17      1      8       38.00          0.1000E+05       6.000           0.000          -1.000    
     16     18      1      8       38.00          0.1000E+05       6.000           0.000          -1.000    
     17     19      1      8       38.00          0.1000E+05       6.000           0.000          -1.000    
     18     20      1      7       38.00          0.1000E+05       6.000           0.000          -1.000    
     19     21      1      7       38.00          0.1000E+05       6.000           0.000          -1.000    
     20     22      1      7       38.00          0.1000E+05       6.000           0.000          -1.000    
     21     23      1      6       38.00          0.1000E+05       6.000           0.000          -1.000    
     22     24      1      6       38.00          0.1000E+05       6.000           0.000          -1.000    
     23     25      1      6       38.00          0.1000E+05       6.000           0.000          -1.000    
     24     26      1      5       38.00          0.1000E+05       6.000           0.000          -1.000    
     25     27      1      5       38.00          0.1000E+05       6.000           0.000          -1.000    
     26     28      1      5       38.00          0.1000E+05       6.000           0.000          -1.000    
     27     29      1      4       38.00          0.1000E+05       6.000           0.000          -1.000    
     28     30      1      4       38.00          0.1000E+05       6.000           0.000          -1.000    
     29     31      1      4       38.00          0.1000E+05       6.000           0.000          -1.000    
     30     32      1      3       38.00          0.1000E+05       6.000           0.000          -1.000    
     31     33      1      3       38.00          0.1000E+05       6.000           0.000          -1.000    
     32     34      1      3       38.00          0.1000E+05       6.000           0.000          -1.000    
     33     35      1      2       38.00          0.1000E+05       6.000           0.000          -1.000    
     34     36      1      2       38.00          0.1000E+05       6.000           0.000          -1.000    
     35     37      1      2       38.00          0.1000E+05       6.000           0.000          -1.000    
     36     38      1      1       38.00          0.1000E+05       6.000           0.000          -1.000    
     37     39      1      1       38.00          0.1000E+05       6.000           0.000          -1.000    
     38     40      1      1       38.00          0.1000E+05       6.000           0.000          -1.000    

     38 GHB CELLS
 
 SOLVING FOR HEAD 
                                                   Max.-Head-Change                         Max.-Flux-Residual
  Residual-Control   Outer-Iter.   Inner-Iter.     Column Row Layer    Maximum-Head-Change  Column Row Layer    Maximum-Flux-Residual          L2-NORM 
          0                 1          36           100    1    40      -0.3658771599E+02      99    1   40        -0.3750000000E+02      0.1912452614E+03
          0                 2          16            28    1     4      -0.1329455746E+01      97    1   39        -0.2370785203E+01      0.6361542971E+02
          0                 3          11            37    1     9      -0.3264481152E+00      32    1    7        -0.9166646230E+00      0.2215706321E+01
          0                 4           4            37    1     9      -0.2853907910E-01      41    1   11        -0.1718212146E+00      0.3309834363E+00
          0                 5           2            37    1     9       0.3064894170E-02      36    1    9        -0.2180676822E-01      0.3179609810E-01
          0                 6           1            43    1    39      -0.2665273885E-03      36    1    9        -0.1363481805E-02      0.3971150881E-02
          0                 7           1            43    1    39      -0.7408069758E-03      44    1   36        -0.2187950578E-03      0.3032034437E-02
          0                 8           1            42    1    40      -0.2175637543E-03      37    1    9         0.3538258520E-03      0.3042256579E-02
          0                 9           1            42    1    40      -0.5027196867E-03      44    1   36        -0.1754521230E-03      0.2476352907E-02
          0                10           1            42    1    40      -0.2040888484E-03      63    1   40        -0.2359269268E-03      0.2427283212E-02
                                                   Max.-Head-Change                         Max.-Flux-Residual
  Residual-Control   Outer-Iter.   Inner-Iter.     Column Row Layer    Maximum-Head-Change  Column Row Layer    Maximum-Flux-Residual          L2-NORM 
          0                11           1            42    1    40      -0.2776114490E-03      44    1   36        -0.1425115197E-03      0.2121609722E-02
          0                12           1            42    1    40      -0.2223395379E-03      36    1   12        -0.1689034547E-03      0.2013139679E-02
          0                13           1            42    1    40      -0.1833431780E-03      34    1   16        -0.1397252061E-03      0.1890593839E-02
          0                14           1            42    1    40      -0.2424533844E-03      36    1   12        -0.1255382015E-03      0.1754150454E-02
          0                15           1            42    1    40      -0.1372673351E-03      36    1   12         0.1486652306E-03      0.1703886849E-02
          0                16           1            40    1    40      -0.2452575856E-03      40    1   36        -0.9937854708E-04      0.1539939239E-02
          0                17           1            40    1    40      -0.1115365549E-03      34    1   16        -0.1391799206E-03      0.1524783784E-02
          0                18           1            40    1    40      -0.2250559814E-03      40    1   36        -0.8612376564E-04      0.1346971756E-02
          0                19           1            40    1    40      -0.9523332216E-04      34    1   16        -0.1274355418E-03      0.1342678391E-02
          0                20           1            39    1    39      -0.1925744319E-03      40    1   36        -0.7453976554E-04      0.1176036157E-02
                                                   Max.-Head-Change                         Max.-Flux-Residual
  Residual-Control   Outer-Iter.   Inner-Iter.     Column Row Layer    Maximum-Head-Change  Column Row Layer    Maximum-Flux-Residual          L2-NORM 
          0                21           1            39    1    39      -0.8363243638E-04      34    1   16        -0.1120556569E-03      0.1169415883E-02
          0                22           1            39    1    39      -0.1605823732E-03      40    1   36        -0.6475225564E-04      0.1028998286E-02
          0                23           1            38    1    40      -0.7459438760E-04      34    1   16        -0.9678077652E-04      0.1017187137E-02
          0                24           1            38    1    40      -0.1335960766E-03      32    1   10        -0.5752807056E-04      0.9038394821E-03
          0                25           1            38    1    40      -0.6702389219E-04      34    1   16        -0.8317699746E-04      0.8879309739E-03
          0                26           1            38    1    40      -0.1117851362E-03      32    1   10        -0.5175746378E-04      0.7970090969E-03
          0                27           1            38    1    40      -0.6047722782E-04      34    1   16        -0.7151360018E-04      0.7785914280E-03
          0                28           1            38    1    40      -0.9422363173E-04      32    1   10        -0.4652195366E-04      0.7051893859E-03
          0                29           1            36    1    40      -0.5472797543E-04      34    1   16        -0.6163342033E-04      0.6855187300E-03
          0                30           1            38    1    40      -0.8000132248E-04      32    1   10        -0.4180980460E-04      0.6256985445E-03
                                                   Max.-Head-Change                         Max.-Flux-Residual
  Residual-Control   Outer-Iter.   Inner-Iter.     Column Row Layer    Maximum-Head-Change  Column Row Layer    Maximum-Flux-Residual          L2-NORM 
          0                31           1            36    1    40      -0.4966815952E-04      34    1   16        -0.5328842678E-04      0.6056581636E-03
          0                32           1            38    1    40      -0.6838852996E-04      32    1   10        -0.3758050042E-04      0.5564320071E-03
          0                33           1            36    1    40      -0.4510597762E-04      34    1   16        -0.4623611017E-04      0.5366230869E-03
          0                34           1            38    1    38      -0.5885368398E-04      33    1   21        -0.3401418235E-04      0.4957346136E-03
          0                35           1            36    1    40      -0.4096603835E-04      34    1   16        -0.4026273672E-04      0.4765596028E-03
          0                36           1            38    1    38      -0.5095206951E-04      33    1   21        -0.3079243902E-04      0.4422919326E-03
          0                37           1            36    1    40      -0.3719224040E-04      34    1   16        -0.3518630939E-04      0.4240135716E-03
          0                38           1            38    1    38      -0.4434211461E-04      34    1   16        -0.2776821930E-04      0.3950488164E-03
          0                39           1            36    1    40      -0.3374237240E-04      34    1   16        -0.3085424413E-04      0.3778300033E-03
          0                40           1            38    1    38      -0.3876983726E-04      34    1   16        -0.2510746816E-04      0.3531491967E-03
                                                   Max.-Head-Change                         Max.-Flux-Residual
  Residual-Control   Outer-Iter.   Inner-Iter.     Column Row Layer    Maximum-Head-Change  Column Row Layer    Maximum-Flux-Residual          L2-NORM 
          0                41           1            35    1    37      -0.3059963809E-04      34    1   16        -0.2713992990E-04      0.3370802410E-03
          0                42           1            38    1    38      -0.3403666748E-04      34    1   16        -0.2268334276E-04      0.3158910014E-03
          0                43           1            35    1    37      -0.2773981922E-04      34    1   16        -0.2393921966E-04      0.3010089623E-03
          0                44           1            38    1    38      -0.2998681176E-04      34    1   16        -0.2047370350E-04      0.2826919394E-03
          0                45           1            35    1    37      -0.2511799125E-04      34    1   16        -0.2116707321E-04      0.2689949494E-03
          0                46           1            38    1    36      -0.2651470752E-04      34    1   16        -0.1846064686E-04      0.2530633665E-03
          0                47           1            35    1    37      -0.2271777216E-04      34    1   16        -0.1875440063E-04      0.2405216342E-03
          0                48           1            38    1    36      -0.2350699228E-04      34    1   16        -0.1662893231E-04      0.2265903735E-03
          0                49           1            35    1    37      -0.2052445395E-04      34    1   16        -0.1664518089E-04      0.2151548047E-03
          0                50           1            38    1    36      -0.2088156412E-04      34    1   16        -0.1496491728E-04      0.2029167140E-03
                                                   Max.-Head-Change                         Max.-Flux-Residual
  Residual-Control   Outer-Iter.   Inner-Iter.     Column Row Layer    Maximum-Head-Change  Column Row Layer    Maximum-Flux-Residual          L2-NORM 
          0                51           1            35    1    37      -0.1852422323E-04      34    1   16        -0.1479392392E-04      0.1925256821E-03
          0                52           1            38    1    36      -0.1857869557E-04      34    1   16        -0.1345592074E-04      0.1817334639E-03
          0                53           1            35    1    37      -0.1670374494E-04      34    1   16        -0.1316352268E-04      0.1723180650E-03
          0                54           1            38    1    36      -0.1655048486E-04      34    1   16        -0.1208990329E-04      0.1627704987E-03
          0                55           1            35    1    37      -0.1505001300E-04      34    1   16        -0.1172349477E-04      0.1542585351E-03
          0                56           1            38    1    36      -0.1475812856E-04      34    1   16        -0.1085534888E-04      0.1457900510E-03
          0                57           1            35    1    37      -0.1355034970E-04      34    1   16        -0.1044858368E-04      0.1381089545E-03
          0                58           1            38    1    36      -0.1316983872E-04      34    1   16        -0.9741254985E-05      0.1305817732E-03
          0                59           1            35    1    37      -0.1219248395E-04      34    1   16        -0.9317663171E-05      0.1236606615E-03
          0                60           1            32    1    38      -0.1177460382E-04      34    1   16        -0.8737171697E-05      0.1169588750E-03
                                                   Max.-Head-Change                         Max.-Flux-Residual
  Residual-Control   Outer-Iter.   Inner-Iter.     Column Row Layer    Maximum-Head-Change  Column Row Layer    Maximum-Flux-Residual          L2-NORM 
          0                61           1            35    1    37      -0.1096464566E-04      34    1   16        -0.8312897251E-05      0.1107299303E-03
          0                62           1            32    1    38      -0.1053547599E-04      34    1   16        -0.7833245832E-05      0.1047550373E-03

    ------------------------------------------------
       NWT REQUIRED           62 OUTER ITERATIONS 
       AND A TOTAL OF        126 INNER ITERATIONS.
    ------------------------------------------------

 OUTPUT CONTROL FOR STRESS PERIOD    1   TIME STEP    1
    PRINT BUDGET
    SAVE HEAD FOR ALL LAYERS
    SAVE DRAWDOWN FOR ALL LAYERS
    SAVE BUDGET
 UBDSV1 SAVING "         STORAGE" ON UNIT  40 AT TIME STEP  1, STRESS PERIOD   1
 UBDSV2 SAVING "   CONSTANT HEAD" ON UNIT  40 AT TIME STEP  1, STRESS PERIOD   1
 UBDSV1 SAVING "FLOW RIGHT FACE " ON UNIT  40 AT TIME STEP  1, STRESS PERIOD   1
 UBDSV1 SAVING "FLOW LOWER FACE " ON UNIT  40 AT TIME STEP  1, STRESS PERIOD   1
 UBDSV4 SAVING "          DRAINS" ON UNIT  40 AT TIME STEP  1, STRESS PERIOD   1
 UBDSV4 SAVING " HEAD DEP BOUNDS" ON UNIT  40 AT TIME STEP  1, STRESS PERIOD   1

 SAVING SATURATED THICKNESS AND FLOW TERMS ON UNIT  333 FOR MT3DMS
 BY THE LINK-MT3DMS PACKAGE V7 AT TIME STEP    1, STRESS PERIOD    1


 HEAD WILL BE SAVED ON UNIT    2 AT END OF TIME STEP    1, STRESS PERIOD    1

 DRAWDOWN WILL BE SAVED ON UNIT   13 AT END OF TIME STEP    1, STRESS PERIOD    1
1
  VOLUMETRIC BUDGET FOR ENTIRE MODEL AT END OF TIME STEP    1, STRESS PERIOD   1
  ------------------------------------------------------------------------------

     CUMULATIVE VOLUMES      L**3       RATES FOR THIS TIME STEP      L**3/T
     ------------------                 ------------------------

           IN:                                      IN:
           ---                                      ---
             STORAGE     =           6.4989               STORAGE     =           6.4989
       CONSTANT HEAD     =           0.0000         CONSTANT HEAD     =           0.0000
              DRAINS     =           0.0000                DRAINS     =           0.0000
     HEAD DEP BOUNDS     =          32.0555       HEAD DEP BOUNDS     =          32.0555

                TOTAL IN =          38.5545                  TOTAL IN =          38.5545

          OUT:                                     OUT:
          ----                                     ----
             STORAGE     =           0.0000               STORAGE     =           0.0000
       CONSTANT HEAD     =           0.0000         CONSTANT HEAD     =           0.0000
              DRAINS     =          38.5571                DRAINS     =          38.5571
     HEAD DEP BOUNDS     =           0.0000       HEAD DEP BOUNDS     =           0.0000

               TOTAL OUT =          38.5571                 TOTAL OUT =          38.5571

                IN - OUT =      -2.6245E-03                  IN - OUT =      -2.6245E-03

     PERCENT DISCREPANCY =          -0.01         PERCENT DISCREPANCY =          -0.01






         TIME SUMMARY AT END OF TIME STEP    1 IN STRESS PERIOD    1
                    SECONDS     MINUTES      HOURS       DAYS        YEARS
                    -----------------------------------------------------------
   TIME STEP LENGTH  86400.      1440.0      24.000      1.0000     2.73785E-03
 STRESS PERIOD TIME  86400.      1440.0      24.000      1.0000     2.73785E-03
         TOTAL TIME  86400.      1440.0      24.000      1.0000     2.73785E-03
1
 
 SOLVING FOR HEAD 
                                                   Max.-Head-Change                         Max.-Flux-Residual
  Residual-Control   Outer-Iter.   Inner-Iter.     Column Row Layer    Maximum-Head-Change  Column Row Layer    Maximum-Flux-Residual          L2-NORM 
          0                 1          16            31    1     6      -0.6805170870E+00      22    1    4        -0.1200001947E+00      0.5860861369E+00
          0                 2           6            30    1     7      -0.2223792846E+00      36    1    9        -0.7413239484E+00      0.2102542568E+01
          0                 3           2            30    1     5      -0.8351857194E-02      35    1    9         0.3604391078E-01      0.8908302528E-01
          0                 4           1            36    1     9      -0.6663700560E-03      20    1    4        -0.7837814825E-03      0.6363796841E-02
          0                 5           1            39    1    10      -0.6178714467E-03      35    1    9        -0.5071942863E-03      0.5747096064E-02
          0                 6           1            36    1     9      -0.8222813186E-03      39    1   13        -0.5634032113E-03      0.5393166756E-02
          0                 7           1            32    1     6      -0.3823266989E-03      40    1   12        -0.4755761411E-03      0.5087872379E-02
          0                 8           1            35    1    37      -0.8994936132E-03      39    1   13        -0.4015536543E-03      0.4650506560E-02
          0                 9           1            33    1     7      -0.2823185200E-03      38    1   13        -0.4564918616E-03      0.4447247855E-02
          0                10           1            35    1    39      -0.8175479240E-03      39    1   13        -0.3083181621E-03      0.3972677718E-02
                                                   Max.-Head-Change                         Max.-Flux-Residual
  Residual-Control   Outer-Iter.   Inner-Iter.     Column Row Layer    Maximum-Head-Change  Column Row Layer    Maximum-Flux-Residual          L2-NORM 
          0                11           1            35    1    39      -0.2367617923E-03      38    1   13        -0.3752308502E-03      0.3793013298E-02
          0                12           1            35    1    39      -0.6597438470E-03      39    1   13        -0.2513021692E-03      0.3399474137E-02
          0                13           1            35    1    39      -0.2113002031E-03      38    1   13        -0.2847581445E-03      0.3236771905E-02
          0                14           1            35    1    39      -0.5240356381E-03      39    1   13        -0.2123423496E-03      0.2937675829E-02
          0                15           1            35    1    39      -0.1909574918E-03      26    1   10        -0.2296604014E-03      0.2793502493E-02
          0                16           1            35    1    39      -0.4190052361E-03      39    1   13        -0.1835608335E-03      0.2562849263E-02
          0                17           1            35    1    39      -0.1742860108E-03      26    1   10        -0.1922661667E-03      0.2435845491E-02
          0                18           1            36    1    40      -0.3390872329E-03      39    1   13        -0.1610608865E-03      0.2253509974E-02
          0                19           1            36    1    40      -0.1602858660E-03      26    1   10        -0.1614052149E-03      0.2141343665E-02
          0                20           1            36    1    40      -0.2781103759E-03      39    1   13        -0.1427447905E-03      0.1993844669E-02
                                                   Max.-Head-Change                         Max.-Flux-Residual
  Residual-Control   Outer-Iter.   Inner-Iter.     Column Row Layer    Maximum-Head-Change  Column Row Layer    Maximum-Flux-Residual          L2-NORM 
          0                21           1            36    1    40      -0.1481930723E-03      26    1   10        -0.1361810291E-03      0.1894213647E-02
          0                22           1            36    1    40      -0.2309320430E-03      39    1   13        -0.1273705460E-03      0.1772494661E-02
          0                23           1            36    1    40      -0.1374467510E-03      39    1   13        -0.1163902938E-03      0.1683438968E-02
          0                24           1            36    1    40      -0.1938999260E-03      39    1   13        -0.1141634427E-03      0.1581301380E-02
          0                25           1            36    1    40      -0.1276820614E-03      39    1   13        -0.1022302616E-03      0.1501242903E-02
          0                26           1            36    1    40      -0.1643942817E-03      39    1   13        -0.1026186162E-03      0.1414349487E-02
          0                27           1            36    1    40      -0.1186511035E-03      39    1   13        -0.9032027276E-04      0.1342043592E-02
          0                28           1            36    1    40      -0.1405444430E-03      39    1   13        -0.9239566583E-04      0.1267288916E-02
          0                29           1            36    1    40      -0.1101900790E-03      39    1   13        -0.8014605334E-04      0.1201756854E-02
          0                30           1            36    1    40      -0.1210074512E-03      39    1   13        -0.8325821761E-04      0.1136865596E-02
                                                   Max.-Head-Change                         Max.-Flux-Residual
  Residual-Control   Outer-Iter.   Inner-Iter.     Column Row Layer    Maximum-Head-Change  Column Row Layer    Maximum-Flux-Residual          L2-NORM 
          0                31           1            36    1    40      -0.1021951131E-03      39    1   13        -0.7134521712E-04      0.1077331487E-02
          0                32           1            36    1    40      -0.1048093894E-03      39    1   13        -0.7503751226E-04      0.1020598395E-02
          0                33           1            36    1    40      -0.9460429134E-04      39    1   13        -0.6365696089E-04      0.9664373953E-03
          0                34           1            36    1    40      -0.9123516273E-04      39    1   13        -0.6760956165E-04      0.9165561278E-03
          0                35           1            36    1    40      -0.8738418722E-04      39    1   13        -0.5688932208E-04      0.8672542039E-03
          0                36           1            36    1    40      -0.7975261893E-04      39    1   13        -0.6088037981E-04      0.8232027690E-03
          0                37           1            36    1    40      -0.8051971248E-04      39    1   13        -0.5089764875E-04      0.7783265686E-03
          0                38           1            36    1    40      -0.6996023589E-04      39    1   13        -0.5477623841E-04      0.7392893990E-03
          0                39           1            36    1    40      -0.7400656465E-04      39    1   13        -0.4557028063E-04      0.6984642928E-03
          0                40           1            36    1    40      -0.6155082076E-04      39    1   13        -0.4923717336E-04      0.6637784342E-03
                                                   Max.-Head-Change                         Max.-Flux-Residual
  Residual-Control   Outer-Iter.   Inner-Iter.     Column Row Layer    Maximum-Head-Change  Column Row Layer    Maximum-Flux-Residual          L2-NORM 
          0                41           1            36    1    40      -0.6784573519E-04      39    1   13        -0.4081891990E-04      0.6266729088E-03
          0                42           1            36    1    40      -0.5428610157E-04      39    1   13        -0.4421265442E-04      0.5957903341E-03
          0                43           1            36    1    40      -0.6203970723E-04      39    1   13        -0.3657209481E-04      0.5621051949E-03
          0                44           1            36    1    40      -0.4797876160E-04      39    1   13        -0.3965872230E-04      0.5345660494E-03
          0                45           1            36    1    40      -0.5658998523E-04      39    1   13        -0.3277068083E-04      0.5040271486E-03
          0                46           1            36    1    40      -0.4247960354E-04      39    1   13        -0.3553612316E-04      0.4794405017E-03
          0                47           1            37    1    39      -0.5149831800E-04      39    1   13        -0.2936480797E-04      0.4517939934E-03
          0                48           1            36    1    40      -0.3766829175E-04      39    1   13        -0.3180912285E-04      0.4298238021E-03
          0                49           1            37    1    39      -0.4676533363E-04      39    1   13        -0.2631170486E-04      0.4048331232E-03
          0                50           1            36    1    40      -0.3344659951E-04      39    1   13        -0.2844477103E-04      0.3851878430E-03
                                                   Max.-Head-Change                         Max.-Flux-Residual
  Residual-Control   Outer-Iter.   Inner-Iter.     Column Row Layer    Maximum-Head-Change  Column Row Layer    Maximum-Flux-Residual          L2-NORM 
          0                51           1            37    1    39      -0.4237532272E-04      39    1   13        -0.2357417992E-04      0.3626318431E-03
          0                52           1            36    1    40      -0.2973343672E-04      39    1   13        -0.2541245630E-04      0.3450566207E-03
          0                53           1            38    1    40      -0.3832039675E-04      39    1   13        -0.2111953876E-04      0.3247283960E-03
          0                54           1            36    1    40      -0.2646115997E-04      39    1   13        -0.2268364443E-04      0.3089991028E-03
          0                55           1            38    1    40      -0.3459204827E-04      39    1   13        -0.1891879714E-04      0.2907052467E-03
          0                56           1            36    1    40      -0.2357279311E-04      39    1   13        -0.2023172181E-04      0.2766238355E-03
          0                57           1            38    1    38      -0.3117605347E-04      39    1   13        -0.1694610006E-04      0.2601838953E-03
          0                58           1            36    1    40      -0.2101992836E-04      39    1   13        -0.1803189457E-04      0.2475747255E-03
          0                59           1            38    1    38      -0.2805251769E-04      39    1   13        -0.1517828025E-04      0.2328207427E-03
          0                60           1            36    1    40      -0.1876111752E-04      39    1   13        -0.1606111016E-04      0.2215276104E-03
                                                   Max.-Head-Change                         Max.-Flux-Residual
  Residual-Control   Outer-Iter.   Inner-Iter.     Column Row Layer    Maximum-Head-Change  Column Row Layer    Maximum-Flux-Residual          L2-NORM 
          0                61           1            38    1    38      -0.2520115158E-04      39    1   13        -0.1359451619E-04      0.2083036828E-03
          0                62           1            36    1    40      -0.1676062179E-04      39    1   13        -0.1429799443E-04      0.1981873844E-03
          0                63           1            38    1    38      -0.2260503545E-04      39    1   13        -0.1217605535E-04      0.1863492002E-03
          0                64           1            36    1    40      -0.1498744597E-04      39    1   13        -0.1272277956E-04      0.1772854995E-03
          0                65           1            38    1    38      -0.2024718369E-04      39    1   13        -0.1090599062E-04      0.1666998440E-03
          0                66           1            36    1    40      -0.1341457259E-04      39    1   13        -0.1131723127E-04      0.1585777495E-03
          0                67           1            38    1    38      -0.1811081754E-04      39    1   13        -0.9769071539E-05      0.1491219847E-03
          0                68           1            36    1    40      -0.1201835543E-04      39    1   13        -0.1006456921E-04      0.1418422705E-03
          0                69           1            38    1    38      -0.1617956624E-04      39    1   13        -0.8751541145E-05      0.1334037959E-03
          0                70           1            35    1    39      -0.1077954231E-04      39    1   13        -0.8949388075E-05      0.1268777190E-03
                                                   Max.-Head-Change                         Max.-Flux-Residual
  Residual-Control   Outer-Iter.   Inner-Iter.     Column Row Layer    Maximum-Head-Change  Column Row Layer    Maximum-Flux-Residual          L2-NORM 
          0                71           1            38    1    38      -0.1443760934E-04      39    1   13        -0.7840994840E-05      0.1193534232E-03
          0                72           1            35    1    39      -0.9677947652E-05      39    1   13        -0.7957576713E-05      0.1135016044E-03
          0                73           1            38    1    38      -0.1286975876E-04      39    1   13        -0.7026254764E-05      0.1067973161E-03
          0                74           1            35    1    39      -0.8697507567E-05      39    1   13        -0.7076239854E-05      0.1015487496E-03

    ------------------------------------------------
       NWT REQUIRED           74 OUTER ITERATIONS 
       AND A TOTAL OF         95 INNER ITERATIONS.
    ------------------------------------------------

 OUTPUT CONTROL FOR STRESS PERIOD    1   TIME STEP    2
    PRINT BUDGET
    SAVE HEAD FOR ALL LAYERS
    SAVE DRAWDOWN FOR ALL LAYERS
    SAVE BUDGET
 UBDSV1 SAVING "         STORAGE" ON UNIT  40 AT TIME STEP  2, STRESS PERIOD   1
 UBDSV2 SAVING "   CONSTANT HEAD" ON UNIT  40 AT TIME STEP  2, STRESS PERIOD   1
 UBDSV1 SAVING "FLOW RIGHT FACE " ON UNIT  40 AT TIME STEP  2, STRESS PERIOD   1
 UBDSV1 SAVING "FLOW LOWER FACE " ON UNIT  40 AT TIME STEP  2, STRESS PERIOD   1
 UBDSV4 SAVING "          DRAINS" ON UNIT  40 AT TIME STEP  2, STRESS PERIOD   1
 UBDSV4 SAVING " HEAD DEP BOUNDS" ON UNIT  40 AT TIME STEP  2, STRESS PERIOD   1

 SAVING SATURATED THICKNESS AND FLOW TERMS ON UNIT  333 FOR MT3DMS
 BY THE LINK-MT3DMS PACKAGE V7 AT TIME STEP    2, STRESS PERIOD    1


 HEAD WILL BE SAVED ON UNIT    2 AT END OF TIME STEP    2, STRESS PERIOD    1

 DRAWDOWN WILL BE SAVED ON UNIT   13 AT END OF TIME STEP    2, STRESS PERIOD    1
1
  VOLUMETRIC BUDGET FOR ENTIRE MODEL AT END OF TIME STEP    2, STRESS PERIOD   1
  ------------------------------------------------------------------------------

     CUMULATIVE VOLUMES      L**3       RATES FOR THIS TIME STEP      L**3/T
     ------------------                 ------------------------

           IN:                                      IN:
           ---                                      ---
             STORAGE     =           7.6870               STORAGE     =           1.1881
       CONSTANT HEAD     =           0.0000         CONSTANT HEAD     =           0.0000
              DRAINS     =           0.0000                DRAINS     =           0.0000
     HEAD DEP BOUNDS     =          66.4291       HEAD DEP BOUNDS     =          34.3735

                TOTAL IN =          74.1161                  TOTAL IN =          35.5616

          OUT:                                     OUT:
          ----                                     ----
             STORAGE     =           0.0000               STORAGE     =           0.0000
       CONSTANT HEAD     =           0.0000         CONSTANT HEAD     =           0.0000
              DRAINS     =          74.1213                DRAINS     =          35.5642
     HEAD DEP BOUNDS     =           0.0000       HEAD DEP BOUNDS     =           0.0000

               TOTAL OUT =          74.1213                 TOTAL OUT =          35.5642

                IN - OUT =      -5.1727E-03                  IN - OUT =      -2.5482E-03

     PERCENT DISCREPANCY =          -0.01         PERCENT DISCREPANCY =          -0.01






         TIME SUMMARY AT END OF TIME STEP    2 IN STRESS PERIOD    1
                    SECONDS     MINUTES      HOURS       DAYS        YEARS
                    -----------------------------------------------------------
   TIME STEP LENGTH  86400.      1440.0      24.000      1.0000     2.73785E-03
 STRESS PERIOD TIME 1.72800E+05  2880.0      48.000      2.0000     5.47570E-03
         TOTAL TIME 1.72800E+05  2880.0      48.000      2.0000     5.47570E-03
1
 
 SOLVING FOR HEAD 
                                                   Max.-Head-Change                         Max.-Flux-Residual
  Residual-Control   Outer-Iter.   Inner-Iter.     Column Row Layer    Maximum-Head-Change  Column Row Layer    Maximum-Flux-Residual          L2-NORM 
          0                 1          11            33    1     7      -0.1585651601E+00      29    1    7        -0.5125217996E-01      0.1796146030E+00
          0                 2           4            32    1     6       0.3529765916E-01      45    1   13        -0.1546213876E+00      0.3599722962E+00
          0                 3           2            55    1    39      -0.1017448654E-02      38    1   10        -0.3314811626E-02      0.7225863930E-02
          0                 4           1            54    1    40      -0.1614067311E-03      38    1   11        -0.2968852585E-03      0.2310745863E-02
          0                 5           1            54    1    40      -0.4550005604E-03      52    1   36        -0.1411122117E-03      0.1815863939E-02
          0                 6           1            52    1    40      -0.1277284929E-03      30    1   30        -0.1391514676E-03      0.1689557791E-02
          0                 7           1            52    1    40      -0.2498962873E-03      52    1   36        -0.1052640222E-03      0.1486396348E-02
          0                 8           1            50    1    40      -0.1209647687E-03      30    1   30        -0.1135941710E-03      0.1405923862E-02
          0                 9           1            50    1    40      -0.1685892883E-03      48    1   36        -0.8777239191E-04      0.1286387614E-02
          0                10           1            48    1    40      -0.1168259397E-03      30    1   30        -0.9748596437E-04      0.1221155725E-02
                                                   Max.-Head-Change                         Max.-Flux-Residual
  Residual-Control   Outer-Iter.   Inner-Iter.     Column Row Layer    Maximum-Head-Change  Column Row Layer    Maximum-Flux-Residual          L2-NORM 
          0                11           1            48    1    40      -0.1261418507E-03      30    1   30        -0.8324794157E-04      0.1138762338E-02
          0                12           1            47    1    39      -0.1101535671E-03      30    1   30        -0.8655853105E-04      0.1079565936E-02
          0                13           1            46    1    40      -0.1029281312E-03      30    1   30        -0.8014115815E-04      0.1017270445E-02
          0                14           1            46    1    40      -0.1003802017E-03      30    1   30        -0.7861327470E-04      0.9622788557E-03
          0                15           1            46    1    40      -0.8830947987E-04      30    1   30        -0.7553200817E-04      0.9117522555E-03
          0                16           1            44    1    40      -0.8943040802E-04      30    1   30        -0.7206605403E-04      0.8615991877E-03
          0                17           1            44    1    40      -0.7777806868E-04      30    1   30        -0.7010687466E-04      0.8185614248E-03
          0                18           1            43    1    39      -0.7924044662E-04      30    1   30        -0.6617187239E-04      0.7736505424E-03
          0                19           1            42    1    40      -0.6929571884E-04      30    1   30        -0.6450872434E-04      0.7359035389E-03
          0                20           1            42    1    40      -0.7034943332E-04      30    1   30        -0.6065715053E-04      0.6959748370E-03
                                                   Max.-Head-Change                         Max.-Flux-Residual
  Residual-Control   Outer-Iter.   Inner-Iter.     Column Row Layer    Maximum-Head-Change  Column Row Layer    Maximum-Flux-Residual          L2-NORM 
          0                21           1            42    1    40      -0.6210983762E-04      30    1   30        -0.5907206878E-04      0.6623601070E-03
          0                22           1            42    1    40      -0.6258431153E-04      30    1   30        -0.5546023834E-04      0.6268657713E-03
          0                23           1            40    1    40      -0.5581897005E-04      30    1   30        -0.5392702957E-04      0.5966990070E-03
          0                24           1            40    1    40      -0.5579141404E-04      30    1   30        -0.5058499977E-04      0.5650784287E-03
          0                25           1            40    1    40      -0.5030964152E-04      30    1   30        -0.4911811186E-04      0.5378929246E-03
          0                26           1            40    1    40      -0.4992683229E-04      30    1   30        -0.4604248750E-04      0.5096569002E-03
          0                27           1            39    1    39      -0.4537687601E-04      30    1   30        -0.4465706428E-04      0.4850994378E-03
          0                28           1            40    1    40      -0.4472743470E-04      30    1   30        -0.4183612975E-04      0.4598354421E-03
          0                29           1            39    1    39      -0.4097297476E-04      30    1   30        -0.4054096974E-04      0.4376213360E-03
          0                30           1            38    1    40      -0.4019217304E-04      30    1   30        -0.3796089771E-04      0.4149809630E-03
                                                   Max.-Head-Change                         Max.-Flux-Residual
  Residual-Control   Outer-Iter.   Inner-Iter.     Column Row Layer    Maximum-Head-Change  Column Row Layer    Maximum-Flux-Residual          L2-NORM 
          0                31           1            39    1    39      -0.3699901622E-04      30    1   30        -0.3675894942E-04      0.3948713297E-03
          0                32           1            39    1    10      -0.3630199358E-04      30    1   30        -0.3440538302E-04      0.3745573711E-03
          0                33           1            39    1    39      -0.3341267319E-04      30    1   30        -0.3329544501E-04      0.3563461321E-03
          0                34           1            39    1    10      -0.3279113497E-04      30    1   30        -0.3115395089E-04      0.3381023417E-03
          0                35           1            39    1    39      -0.3017572193E-04      30    1   30        -0.3013221038E-04      0.3216082599E-03
          0                36           1            39    1    10      -0.2961643956E-04      30    1   30        -0.2818844916E-04      0.3052116478E-03
          0                37           1            39    1    39      -0.2725369274E-04      30    1   30        -0.2724963883E-04      0.2902732412E-03
          0                38           1            39    1    10      -0.2674652464E-04      30    1   30        -0.2548947754E-04      0.2755282883E-03
          0                39           1            38    1    38      -0.2462411930E-04      30    1   30        -0.2462766633E-04      0.2620004330E-03
          0                40           1            39    1    10      -0.2415280189E-04      30    1   30        -0.2303728343E-04      0.2487346908E-03
                                                   Max.-Head-Change                         Max.-Flux-Residual
  Residual-Control   Outer-Iter.   Inner-Iter.     Column Row Layer    Maximum-Head-Change  Column Row Layer    Maximum-Flux-Residual          L2-NORM 
          0                41           1            38    1    38      -0.2224760290E-04      30    1   30        -0.2224639508E-04      0.2364862508E-03
          0                42           1            39    1    10      -0.2180922434E-04      30    1   30        -0.2081238085E-04      0.2245469231E-03
          0                43           1            38    1    38      -0.2009939381E-04      30    1   30        -0.2008650790E-04      0.2134590114E-03
          0                44           1            39    1    10      -0.1969207912E-04      30    1   30        -0.1879595658E-04      0.2027102376E-03
          0                45           1            38    1    38      -0.1815768581E-04      30    1   30        -0.1812954173E-04      0.1926748835E-03
          0                46           1            39    1    10      -0.1777978852E-04      30    1   30        -0.1697013113E-04      0.1829955309E-03
          0                47           1            38    1    38      -0.1640273492E-04      30    1   30        -0.1635804654E-04      0.1739145845E-03
          0                48           1            39    1    10      -0.1605275138E-04      30    1   30        -0.1531810500E-04      0.1651964364E-03
          0                49           1            38    1    38      -0.1481667533E-04      30    1   30        -0.1475568018E-04      0.1569806529E-03
          0                50           1            39    1    10      -0.1449317352E-04      30    1   30        -0.1382422954E-04      0.1491268679E-03
                                                   Max.-Head-Change                         Max.-Flux-Residual
  Residual-Control   Outer-Iter.   Inner-Iter.     Column Row Layer    Maximum-Head-Change  Column Row Layer    Maximum-Flux-Residual          L2-NORM 
          0                51           1            38    1    38      -0.1338334112E-04      30    1   30        -0.1330724098E-04      0.1416951075E-03
          0                52           1            39    1    10      -0.1308492356E-04      30    1   30        -0.1247402400E-04      0.1346189175E-03
          0                53           1            38    1    38      -0.1208810941E-04      30    1   30        -0.1199866733E-04      0.1278974338E-03
          0                54           1            39    1    10      -0.1181338791E-04      30    1   30        -0.1125415969E-04      0.1215210163E-03
          0                55           1            38    1    38      -0.1091775078E-04      30    1   30        -0.1081700862E-04      0.1154428104E-03
          0                56           1            39    1    10      -0.1066534092E-04      30    1   30        -0.1015241503E-04      0.1096963098E-03
          0                57           1            38    1    38      -0.9860292749E-05      30    1   30        -0.9750382276E-05      0.1042005426E-03

    ------------------------------------------------
       NWT REQUIRED           57 OUTER ITERATIONS 
       AND A TOTAL OF         71 INNER ITERATIONS.
    ------------------------------------------------

 OUTPUT CONTROL FOR STRESS PERIOD    1   TIME STEP    3
    PRINT BUDGET
    SAVE HEAD FOR ALL LAYERS
    SAVE DRAWDOWN FOR ALL LAYERS
    SAVE BUDGET
 UBDSV1 SAVING "         STORAGE" ON UNIT  40 AT TIME STEP  3, STRESS PERIOD   1
 UBDSV2 SAVING "   CONSTANT HEAD" ON UNIT  40 AT TIME STEP  3, STRESS PERIOD   1
 UBDSV1 SAVING "FLOW RIGHT FACE " ON UNIT  40 AT TIME STEP  3, STRESS PERIOD   1
 UBDSV1 SAVING "FLOW LOWER FACE " ON UNIT  40 AT TIME STEP  3, STRESS PERIOD   1
 UBDSV4 SAVING "          DRAINS" ON UNIT  40 AT TIME STEP  3, STRESS PERIOD   1
 UBDSV4 SAVING " HEAD DEP BOUNDS" ON UNIT  40 AT TIME STEP  3, STRESS PERIOD   1

 SAVING SATURATED THICKNESS AND FLOW TERMS ON UNIT  333 FOR MT3DMS
 BY THE LINK-MT3DMS PACKAGE V7 AT TIME STEP    3, STRESS PERIOD    1


 HEAD WILL BE SAVED ON UNIT    2 AT END OF TIME STEP    3, STRESS PERIOD    1

 DRAWDOWN WILL BE SAVED ON UNIT   13 AT END OF TIME STEP    3, STRESS PERIOD    1
1
  VOLUMETRIC BUDGET FOR ENTIRE MODEL AT END OF TIME STEP    3, STRESS PERIOD   1
  ------------------------------------------------------------------------------

     CUMULATIVE VOLUMES      L**3       RATES FOR THIS TIME STEP      L**3/T
     ------------------                 ------------------------

           IN:                                      IN:
           ---                                      ---
             STORAGE     =           7.9805               STORAGE     =           0.2935
       CONSTANT HEAD     =           0.0000         CONSTANT HEAD     =           0.0000
              DRAINS     =           0.0000                DRAINS     =           0.0000
     HEAD DEP BOUNDS     =         101.2593       HEAD DEP BOUNDS     =          34.8303

                TOTAL IN =         109.2399                  TOTAL IN =          35.1237

          OUT:                                     OUT:
          ----                                     ----
             STORAGE     =       7.3829E-10               STORAGE     =       7.3829E-10
       CONSTANT HEAD     =           0.0000         CONSTANT HEAD     =           0.0000
              DRAINS     =         109.2476                DRAINS     =          35.1263
     HEAD DEP BOUNDS     =           0.0000       HEAD DEP BOUNDS     =           0.0000

               TOTAL OUT =         109.2476                 TOTAL OUT =          35.1263

                IN - OUT =      -7.7438E-03                  IN - OUT =      -2.5787E-03

     PERCENT DISCREPANCY =          -0.01         PERCENT DISCREPANCY =          -0.01






         TIME SUMMARY AT END OF TIME STEP    3 IN STRESS PERIOD    1
                    SECONDS     MINUTES      HOURS       DAYS        YEARS
                    -----------------------------------------------------------
   TIME STEP LENGTH  86400.      1440.0      24.000      1.0000     2.73785E-03
 STRESS PERIOD TIME 2.59200E+05  4320.0      72.000      3.0000     8.21355E-03
         TOTAL TIME 2.59200E+05  4320.0      72.000      3.0000     8.21355E-03
1
 
 SOLVING FOR HEAD 
                                                   Max.-Head-Change                         Max.-Flux-Residual
  Residual-Control   Outer-Iter.   Inner-Iter.     Column Row Layer    Maximum-Head-Change  Column Row Layer    Maximum-Flux-Residual          L2-NORM 
          0                 1           6            39    1    10      -0.3939963211E-01      35    1    9        -0.1249758507E-01      0.4625025438E-01
          0                 2           1            34    1     8      -0.8551456803E-03      34    1    9        -0.2927938980E-02      0.7256721130E-02
          0                 3           4            34    1    40      -0.9642142909E-02      33    1   27        -0.3437569313E-03      0.5022923555E-02
          0                 4           1            36    1     9      -0.3413624793E-03      36    1   10        -0.2164221374E-02      0.4865879798E-02
          0                 5           1            64    1    40      -0.1092838470E-03      36    1   10        -0.1343222045E-03      0.7864487699E-03
          0                 6           1            62    1    40      -0.1141273640E-03      37    1   11        -0.7225585387E-04      0.6175607556E-03
          0                 7           1            62    1    40      -0.7678813081E-04      37    1   11         0.7536141038E-04      0.5217310668E-03
          0                 8           1            62    1    40      -0.8106146850E-04      37    1   11        -0.4741207442E-04      0.4483753379E-03
          0                 9           1            60    1    40      -0.5492548111E-04      33    1   11        -0.3551721647E-04      0.3869313906E-03
          0                10           1            60    1    40      -0.5479792645E-04      60    1   36        -0.2998701365E-04      0.3410973751E-03
                                                   Max.-Head-Change                         Max.-Flux-Residual
  Residual-Control   Outer-Iter.   Inner-Iter.     Column Row Layer    Maximum-Head-Change  Column Row Layer    Maximum-Flux-Residual          L2-NORM 
          0                11           1            60    1    40      -0.4229746611E-04      60    1   36        -0.2598124456E-04      0.3011078895E-03
          0                12           1            59    1    39      -0.3926442680E-04      60    1   36        -0.2298319566E-04      0.2692362790E-03
          0                13           1            58    1    40      -0.3259672978E-04      60    1   36        -0.2019009167E-04      0.2414931848E-03
          0                14           1            58    1    40      -0.3057469501E-04      39    1   13        -0.1868183307E-04      0.2181879322E-03
          0                15           1            58    1    40      -0.2489535074E-04      56    1   36        -0.1599863228E-04      0.1981683106E-03
          0                16           1            56    1    40      -0.2451964254E-04      39    1   13        -0.1543162153E-04      0.1807663822E-03
          0                17           1            56    1    40      -0.1972089968E-04      56    1   36        -0.1292450062E-04      0.1659483627E-03
          0                18           1            54    1    40      -0.1974866399E-04      39    1   13        -0.1201253770E-04      0.1526439879E-03
          0                19           1            54    1    40      -0.1617530183E-04      40    1   36        -0.1101828769E-04      0.1415152409E-03
          0                20           1            54    1    40      -0.1586677250E-04      40    1   36        -0.1028792531E-04      0.1312313005E-03
                                                   Max.-Head-Change                         Max.-Flux-Residual
  Residual-Control   Outer-Iter.   Inner-Iter.     Column Row Layer    Maximum-Head-Change  Column Row Layer    Maximum-Flux-Residual          L2-NORM 
          0                21           1            54    1    40      -0.1359793324E-04      40    1   36        -0.9784404938E-05      0.1225981294E-03
          0                22           1            52    1    40      -0.1288956431E-04      40    1   36        -0.9149054563E-05      0.1146263452E-03
          0                23           1            52    1    40      -0.1152213678E-04      32    1   11         0.8869156915E-05      0.1076278624E-03
          0                24           1            51    1    39      -0.1070980507E-04      32    1   11         0.8555168108E-05      0.1013560547E-03

    ------------------------------------------------
       NWT REQUIRED           24 OUTER ITERATIONS 
       AND A TOTAL OF         32 INNER ITERATIONS.
    ------------------------------------------------

 OUTPUT CONTROL FOR STRESS PERIOD    1   TIME STEP    4
    PRINT BUDGET
    SAVE HEAD FOR ALL LAYERS
    SAVE DRAWDOWN FOR ALL LAYERS
    SAVE BUDGET
 UBDSV1 SAVING "         STORAGE" ON UNIT  40 AT TIME STEP  4, STRESS PERIOD   1
 UBDSV2 SAVING "   CONSTANT HEAD" ON UNIT  40 AT TIME STEP  4, STRESS PERIOD   1
 UBDSV1 SAVING "FLOW RIGHT FACE " ON UNIT  40 AT TIME STEP  4, STRESS PERIOD   1
 UBDSV1 SAVING "FLOW LOWER FACE " ON UNIT  40 AT TIME STEP  4, STRESS PERIOD   1
 UBDSV4 SAVING "          DRAINS" ON UNIT  40 AT TIME STEP  4, STRESS PERIOD   1
 UBDSV4 SAVING " HEAD DEP BOUNDS" ON UNIT  40 AT TIME STEP  4, STRESS PERIOD   1

 SAVING SATURATED THICKNESS AND FLOW TERMS ON UNIT  333 FOR MT3DMS
 BY THE LINK-MT3DMS PACKAGE V7 AT TIME STEP    4, STRESS PERIOD    1


 HEAD WILL BE SAVED ON UNIT    2 AT END OF TIME STEP    4, STRESS PERIOD    1

 DRAWDOWN WILL BE SAVED ON UNIT   13 AT END OF TIME STEP    4, STRESS PERIOD    1
1
  VOLUMETRIC BUDGET FOR ENTIRE MODEL AT END OF TIME STEP    4, STRESS PERIOD   1
  ------------------------------------------------------------------------------

     CUMULATIVE VOLUMES      L**3       RATES FOR THIS TIME STEP      L**3/T
     ------------------                 ------------------------

           IN:                                      IN:
           ---                                      ---
             STORAGE     =           8.0522               STORAGE     =       7.1635E-02
       CONSTANT HEAD     =           0.0000         CONSTANT HEAD     =           0.0000
              DRAINS     =           0.0000                DRAINS     =           0.0000
     HEAD DEP BOUNDS     =         136.1961       HEAD DEP BOUNDS     =          34.9368

                TOTAL IN =         144.2483                  TOTAL IN =          35.0084

          OUT:                                     OUT:
          ----                                     ----
             STORAGE     =       2.2066E-09               STORAGE     =       1.4683E-09
       CONSTANT HEAD     =           0.0000         CONSTANT HEAD     =           0.0000
              DRAINS     =         144.2583                DRAINS     =          35.0107
     HEAD DEP BOUNDS     =           0.0000       HEAD DEP BOUNDS     =           0.0000

               TOTAL OUT =         144.2583                 TOTAL OUT =          35.0107

                IN - OUT =      -1.0056E-02                  IN - OUT =      -2.3270E-03

     PERCENT DISCREPANCY =          -0.01         PERCENT DISCREPANCY =          -0.01






         TIME SUMMARY AT END OF TIME STEP    4 IN STRESS PERIOD    1
                    SECONDS     MINUTES      HOURS       DAYS        YEARS
                    -----------------------------------------------------------
   TIME STEP LENGTH  86400.      1440.0      24.000      1.0000     2.73785E-03
 STRESS PERIOD TIME 3.45600E+05  5760.0      96.000      4.0000     1.09514E-02
         TOTAL TIME 3.45600E+05  5760.0      96.000      4.0000     1.09514E-02
1
 
 SOLVING FOR HEAD 
                                                   Max.-Head-Change                         Max.-Flux-Residual
  Residual-Control   Outer-Iter.   Inner-Iter.     Column Row Layer    Maximum-Head-Change  Column Row Layer    Maximum-Flux-Residual          L2-NORM 
          0                 1           5            39    1    10      -0.9324722895E-02      35    1    9        -0.3158555207E-02      0.1157206587E-01
          0                 2           1            28    1    28      -0.1764882008E-03      29    1   27        -0.1424442376E-03      0.1475920450E-02
          0                 3           1            32    1    32      -0.1780259720E-03      34    1   32        -0.9074763767E-04      0.1319959902E-02
          0                 4           1            35    1    39      -0.1055014542E-03      32    1   12        -0.9115118820E-04      0.1221450654E-02
          0                 5           1            34    1    40      -0.2007385496E-03      36    1   36        -0.7522809523E-04      0.1155517651E-02
          0                 6           1            39    1    10      -0.8714343183E-04      31    1   11        -0.9865620063E-04      0.1076576339E-02
          0                 7           1            34    1    40      -0.2174927842E-03      36    1   36        -0.6492049800E-04      0.1012759030E-02
          0                 8           1            39    1    10      -0.7257274916E-04      31    1   11        -0.9824159565E-04      0.9381625923E-03
          0                 9           1            34    1    40      -0.2082136738E-03      36    1   36        -0.5527803665E-04      0.8729101159E-03
          0                10           1            39    1    10      -0.6010834535E-04      31    1   11        -0.8779885655E-04      0.8049619029E-03
                                                   Max.-Head-Change                         Max.-Flux-Residual
  Residual-Control   Outer-Iter.   Inner-Iter.     Column Row Layer    Maximum-Head-Change  Column Row Layer    Maximum-Flux-Residual          L2-NORM 
          0                11           1            35    1    39      -0.1818380152E-03      36    1   36        -0.4678253782E-04      0.7433454538E-03
          0                12           1            39    1    10      -0.5021079490E-04      31    1   11        -0.7328855156E-04      0.6847263570E-03
          0                13           1            35    1    39      -0.1539538674E-03      36    1   36        -0.3959765490E-04      0.6309320445E-03
          0                14           1            39    1    10      -0.4215729040E-04      31    1   11        -0.5963714034E-04      0.5813512936E-03
          0                15           1            36    1    40      -0.1298038553E-03      36    1   36        -0.3356388982E-04      0.5356921963E-03
          0                16           1            39    1    10      -0.3542492552E-04      31    1   11        -0.4823511097E-04      0.4938295002E-03
          0                17           1            36    1    40      -0.1096790836E-03      36    1   36        -0.2849113832E-04      0.4552333950E-03
          0                18           1            39    1    10      -0.2974975069E-04      31    1   11        -0.3897282943E-04      0.4198202077E-03
          0                19           1            36    1    40      -0.9288663490E-04      36    1   36        -0.2421170882E-04      0.3871565801E-03
          0                20           1            39    1    10      -0.2495291267E-04      31    1   11        -0.3148261925E-04      0.3571336536E-03
                                                   Max.-Head-Change                         Max.-Flux-Residual
  Residual-Control   Outer-Iter.   Inner-Iter.     Column Row Layer    Maximum-Head-Change  Column Row Layer    Maximum-Flux-Residual          L2-NORM 
          0                21           1            36    1    40      -0.7885199150E-04      36    1   36        -0.2059185607E-04      0.3294409715E-03
          0                22           1            39    1    10      -0.2090049873E-04      24    1   10        -0.2574683646E-04      0.3039358192E-03
          0                23           1            36    1    40      -0.6709181125E-04      36    1   36        -0.1752227217E-04      0.2804162944E-03
          0                24           1            39    1    10      -0.1747807599E-04      24    1   10        -0.2198469690E-04      0.2587079855E-03
          0                25           1            36    1    40      -0.5721568158E-04      36    1   36        -0.1491374979E-04      0.2387000923E-03
          0                26           1            39    1    10      -0.1458965996E-04      24    1   10        -0.1881904740E-04      0.2201905450E-03
          0                27           1            36    1    40      -0.4890105064E-04      36    1   36        -0.1269247809E-04      0.2031438421E-03
          0                28           1            39    1    10      -0.1215281948E-04      24    1   10        -0.1613903032E-04      0.1873356110E-03
          0                29           1            36    1    40      -0.4188297629E-04      36    1   36        -0.1079744021E-04      0.1727912537E-03
          0                30           1            39    1    10      -0.1009812989E-04      24    1   10        -0.1385664092E-04      0.1592697903E-03
                                                   Max.-Head-Change                         Max.-Flux-Residual
  Residual-Control   Outer-Iter.   Inner-Iter.     Column Row Layer    Maximum-Head-Change  Column Row Layer    Maximum-Flux-Residual          L2-NORM 
          0                31           1            36    1    40      -0.3594199206E-04      36    1   36        -0.9177953928E-05      0.1468445846E-03
          0                32           1            39    1    10      -0.8366852480E-05      24    1   10        -0.1190200152E-04      0.1352638814E-03
          0                33           1            36    1    40      -0.3089686702E-04      36    1   36        -0.7791918449E-05      0.1246374152E-03
          0                34           1            39    1    10      -0.6909676348E-05      24    1   10        -0.1021946792E-04      0.1147082211E-03
          0                35           1            36    1    40      -0.2659758806E-04      36    1   36        -0.6604266105E-05      0.1056121962E-03

    ------------------------------------------------
       NWT REQUIRED           35 OUTER ITERATIONS 
       AND A TOTAL OF         39 INNER ITERATIONS.
    ------------------------------------------------

 OUTPUT CONTROL FOR STRESS PERIOD    1   TIME STEP    5
    PRINT BUDGET
    SAVE HEAD FOR ALL LAYERS
    SAVE DRAWDOWN FOR ALL LAYERS
    SAVE BUDGET
 UBDSV1 SAVING "         STORAGE" ON UNIT  40 AT TIME STEP  5, STRESS PERIOD   1
 UBDSV2 SAVING "   CONSTANT HEAD" ON UNIT  40 AT TIME STEP  5, STRESS PERIOD   1
 UBDSV1 SAVING "FLOW RIGHT FACE " ON UNIT  40 AT TIME STEP  5, STRESS PERIOD   1
 UBDSV1 SAVING "FLOW LOWER FACE " ON UNIT  40 AT TIME STEP  5, STRESS PERIOD   1
 UBDSV4 SAVING "          DRAINS" ON UNIT  40 AT TIME STEP  5, STRESS PERIOD   1
 UBDSV4 SAVING " HEAD DEP BOUNDS" ON UNIT  40 AT TIME STEP  5, STRESS PERIOD   1

 SAVING SATURATED THICKNESS AND FLOW TERMS ON UNIT  333 FOR MT3DMS
 BY THE LINK-MT3DMS PACKAGE V7 AT TIME STEP    5, STRESS PERIOD    1


 HEAD WILL BE SAVED ON UNIT    2 AT END OF TIME STEP    5, STRESS PERIOD    1

 DRAWDOWN WILL BE SAVED ON UNIT   13 AT END OF TIME STEP    5, STRESS PERIOD    1
1
  VOLUMETRIC BUDGET FOR ENTIRE MODEL AT END OF TIME STEP    5, STRESS PERIOD   1
  ------------------------------------------------------------------------------

     CUMULATIVE VOLUMES      L**3       RATES FOR THIS TIME STEP      L**3/T
     ------------------                 ------------------------

           IN:                                      IN:
           ---                                      ---
             STORAGE     =           8.0689               STORAGE     =       1.6742E-02
       CONSTANT HEAD     =           0.0000         CONSTANT HEAD     =           0.0000
              DRAINS     =           0.0000                DRAINS     =           0.0000
     HEAD DEP BOUNDS     =         171.1577       HEAD DEP BOUNDS     =          34.9616

                TOTAL IN =         179.2266                  TOTAL IN =          34.9783

          OUT:                                     OUT:
          ----                                     ----
             STORAGE     =       3.6749E-09               STORAGE     =       1.4682E-09
       CONSTANT HEAD     =           0.0000         CONSTANT HEAD     =           0.0000
              DRAINS     =         179.2391                DRAINS     =          34.9808
     HEAD DEP BOUNDS     =           0.0000       HEAD DEP BOUNDS     =           0.0000

               TOTAL OUT =         179.2391                 TOTAL OUT =          34.9808

                IN - OUT =      -1.2558E-02                  IN - OUT =      -2.4910E-03

     PERCENT DISCREPANCY =          -0.01         PERCENT DISCREPANCY =          -0.01






         TIME SUMMARY AT END OF TIME STEP    5 IN STRESS PERIOD    1
                    SECONDS     MINUTES      HOURS       DAYS        YEARS
                    -----------------------------------------------------------
   TIME STEP LENGTH  86400.      1440.0      24.000      1.0000     2.73785E-03
 STRESS PERIOD TIME 4.32000E+05  7200.0      120.00      5.0000     1.36893E-02
         TOTAL TIME 4.32000E+05  7200.0      120.00      5.0000     1.36893E-02
1
 
 SOLVING FOR HEAD 
                                                   Max.-Head-Change                         Max.-Flux-Residual
  Residual-Control   Outer-Iter.   Inner-Iter.     Column Row Layer    Maximum-Head-Change  Column Row Layer    Maximum-Flux-Residual          L2-NORM 
          0                 1           1            39    1    10      -0.6519915810E-03      39    1   11        -0.6815172198E-03      0.2726971570E-02
          0                 2           1            39    1    10      -0.5720180185E-03      31    1   11        -0.2445271647E-03      0.1283943237E-02
          0                 3           1            39    1    10      -0.2109341581E-03      34    1   14        -0.1420264206E-03      0.9001503774E-03
          0                 4           1            39    1    10      -0.1505590193E-03      31    1   11        -0.1189772572E-03      0.6985055527E-03
          0                 5           1            39    1    10      -0.2093359577E-03      34    1   14        -0.7688556923E-04      0.6133117377E-03
          0                 6           1            39    1    10      -0.6768569982E-04      31    1   11        -0.8630976930E-04      0.5227615997E-03
          0                 7           1            39    1    10      -0.1856494814E-03      34    1   14        -0.4791042193E-04      0.4680742175E-03
          0                 8           1            39    1    10      -0.3663304898E-04      31    1   11        -0.6498993622E-04      0.4117282200E-03
          0                 9           1            39    1    10      -0.1397027548E-03      34    1   14        -0.3171508149E-04      0.3716922163E-03
          0                10           1            39    1    10      -0.2383889678E-04      31    1   11        -0.4863508445E-04      0.3357372818E-03
                                                   Max.-Head-Change                         Max.-Flux-Residual
  Residual-Control   Outer-Iter.   Inner-Iter.     Column Row Layer    Maximum-Head-Change  Column Row Layer    Maximum-Flux-Residual          L2-NORM 
          0                11           1            39    1    10      -0.9402888232E-04      34    1   14        -0.2270349523E-04      0.3057857676E-03
          0                12           1            39    1    10      -0.1841655850E-04      31    1   11        -0.3660414507E-04      0.2810974662E-03
          0                13           1            39    1    10      -0.6498881731E-04      34    1   14        -0.1764754830E-04      0.2584565046E-03
          0                14           1            39    1    10      -0.1567671804E-04      31    1   11        -0.2787429446E-04      0.2398540694E-03
          0                15           1            39    1    10      -0.4794430393E-04      34    1   14        -0.1436870451E-04      0.2222921913E-03
          0                16           1            39    1    10      -0.1386778463E-04      31    1   11        -0.2154942939E-04      0.2074386465E-03
          0                17           1            39    1    10      -0.3738630523E-04      37    1   27        -0.1199237704E-04      0.1933316260E-03
          0                18           1            39    1    10      -0.1240655065E-04      31    1   11        -0.1691938837E-04      0.1810161718E-03
          0                19           1            39    1    10      -0.3037215751E-04      37    1   27        -0.1050444951E-04      0.1693282969E-03
          0                20           1            39    1    10      -0.1110843100E-04      31    1   11        -0.1348184503E-04      0.1588594055E-03
                                                   Max.-Head-Change                         Max.-Flux-Residual
  Residual-Control   Outer-Iter.   Inner-Iter.     Column Row Layer    Maximum-Head-Change  Column Row Layer    Maximum-Flux-Residual          L2-NORM 
          0                21           1            39    1    10      -0.2541122895E-04      36    1   36        -0.9251705251E-05      0.1489495693E-03
          0                22           1            39    1    10      -0.9917196262E-05      24    1   10        -0.1114017277E-04      0.1399050377E-03
          0                23           1            39    1    10      -0.2170617805E-04      36    1   36        -0.8170381136E-05      0.1313665671E-03
          0                24           1            39    1    10      -0.8819850056E-05      24    1   10        -0.9853982704E-05      0.1234714093E-03
          0                25           1            36    1    40      -0.1888720284E-04      36    1   36        -0.7221412034E-05      0.1160348511E-03
          0                26           1            39    1    10      -0.7814693181E-05      24    1   10        -0.8720423352E-05      0.1090979758E-03
          0                27           1            36    1    40      -0.1664656492E-04      36    1   36        -0.6385769211E-05      0.1025753194E-03

    ------------------------------------------------
       NWT REQUIRED           27 OUTER ITERATIONS 
       AND A TOTAL OF         27 INNER ITERATIONS.
    ------------------------------------------------

 OUTPUT CONTROL FOR STRESS PERIOD    1   TIME STEP    6
    PRINT BUDGET
    SAVE HEAD FOR ALL LAYERS
    SAVE DRAWDOWN FOR ALL LAYERS
    SAVE BUDGET
 UBDSV1 SAVING "         STORAGE" ON UNIT  40 AT TIME STEP  6, STRESS PERIOD   1
 UBDSV2 SAVING "   CONSTANT HEAD" ON UNIT  40 AT TIME STEP  6, STRESS PERIOD   1
 UBDSV1 SAVING "FLOW RIGHT FACE " ON UNIT  40 AT TIME STEP  6, STRESS PERIOD   1
 UBDSV1 SAVING "FLOW LOWER FACE " ON UNIT  40 AT TIME STEP  6, STRESS PERIOD   1
 UBDSV4 SAVING "          DRAINS" ON UNIT  40 AT TIME STEP  6, STRESS PERIOD   1
 UBDSV4 SAVING " HEAD DEP BOUNDS" ON UNIT  40 AT TIME STEP  6, STRESS PERIOD   1

 SAVING SATURATED THICKNESS AND FLOW TERMS ON UNIT  333 FOR MT3DMS
 BY THE LINK-MT3DMS PACKAGE V7 AT TIME STEP    6, STRESS PERIOD    1


 HEAD WILL BE SAVED ON UNIT    2 AT END OF TIME STEP    6, STRESS PERIOD    1

 DRAWDOWN WILL BE SAVED ON UNIT   13 AT END OF TIME STEP    6, STRESS PERIOD    1
1
  VOLUMETRIC BUDGET FOR ENTIRE MODEL AT END OF TIME STEP    6, STRESS PERIOD   1
  ------------------------------------------------------------------------------

     CUMULATIVE VOLUMES      L**3       RATES FOR THIS TIME STEP      L**3/T
     ------------------                 ------------------------

           IN:                                      IN:
           ---                                      ---
             STORAGE     =           8.0728               STORAGE     =       3.8755E-03
       CONSTANT HEAD     =           0.0000         CONSTANT HEAD     =           0.0000
              DRAINS     =           0.0000                DRAINS     =           0.0000
     HEAD DEP BOUNDS     =         206.1249       HEAD DEP BOUNDS     =          34.9673

                TOTAL IN =         214.1977                  TOTAL IN =          34.9712

          OUT:                                     OUT:
          ----                                     ----
             STORAGE     =       5.2168E-09               STORAGE     =       1.5420E-09
       CONSTANT HEAD     =           0.0000         CONSTANT HEAD     =           0.0000
              DRAINS     =         214.2128                DRAINS     =          34.9737
     HEAD DEP BOUNDS     =           0.0000       HEAD DEP BOUNDS     =           0.0000

               TOTAL OUT =         214.2128                 TOTAL OUT =          34.9737

                IN - OUT =      -1.5091E-02                  IN - OUT =      -2.5330E-03

     PERCENT DISCREPANCY =          -0.01         PERCENT DISCREPANCY =          -0.01






         TIME SUMMARY AT END OF TIME STEP    6 IN STRESS PERIOD    1
                    SECONDS     MINUTES      HOURS       DAYS        YEARS
                    -----------------------------------------------------------
   TIME STEP LENGTH  86400.      1440.0      24.000      1.0000     2.73785E-03
 STRESS PERIOD TIME 5.18400E+05  8640.0      144.00      6.0000     1.64271E-02
         TOTAL TIME 5.18400E+05  8640.0      144.00      6.0000     1.64271E-02
1
 
 SOLVING FOR HEAD 
                                                   Max.-Head-Change                         Max.-Flux-Residual
  Residual-Control   Outer-Iter.   Inner-Iter.     Column Row Layer    Maximum-Head-Change  Column Row Layer    Maximum-Flux-Residual          L2-NORM 
          0                 1           1            39    1    10      -0.1528258942E-03      39    1   11        -0.1590481066E-03      0.6406601574E-03
          0                 2           1            39    1    10      -0.1427412303E-03      31    1   11        -0.5824822637E-04      0.3304861329E-03
          0                 3           1            39    1    10      -0.5817765168E-04      34    1   14        -0.3596757432E-04      0.2514854899E-03
          0                 4           1            39    1    10      -0.3921777700E-04      31    1   11        -0.2988732956E-04      0.2071763825E-03
          0                 5           1            39    1    10      -0.6829907133E-04      34    1   14        -0.2036623778E-04      0.1891115794E-03
          0                 6           1            39    1    10      -0.1722006375E-04      31    1   11        -0.2331456051E-04      0.1657909896E-03
          0                 7           1            39    1    10      -0.7219939229E-04      34    1   14        -0.1281261808E-04      0.1517007427E-03
          0                 8           1            39    1    10      -0.8236671484E-05      31    1   11        -0.1936349736E-04      0.1332262404E-03
          0                 9           1            39    1    10      -0.5484701366E-04      34    1   14        -0.8286513378E-05      0.1196540354E-03
          0                10           1            35    1    39      -0.5873795349E-05      31    1   11        -0.1527383154E-04      0.1059315438E-03

    ------------------------------------------------
       NWT REQUIRED           10 OUTER ITERATIONS 
       AND A TOTAL OF         10 INNER ITERATIONS.
    ------------------------------------------------

 OUTPUT CONTROL FOR STRESS PERIOD    1   TIME STEP    7
    PRINT BUDGET
    SAVE HEAD FOR ALL LAYERS
    SAVE DRAWDOWN FOR ALL LAYERS
    SAVE BUDGET
 UBDSV1 SAVING "         STORAGE" ON UNIT  40 AT TIME STEP  7, STRESS PERIOD   1
 UBDSV2 SAVING "   CONSTANT HEAD" ON UNIT  40 AT TIME STEP  7, STRESS PERIOD   1
 UBDSV1 SAVING "FLOW RIGHT FACE " ON UNIT  40 AT TIME STEP  7, STRESS PERIOD   1
 UBDSV1 SAVING "FLOW LOWER FACE " ON UNIT  40 AT TIME STEP  7, STRESS PERIOD   1
 UBDSV4 SAVING "          DRAINS" ON UNIT  40 AT TIME STEP  7, STRESS PERIOD   1
 UBDSV4 SAVING " HEAD DEP BOUNDS" ON UNIT  40 AT TIME STEP  7, STRESS PERIOD   1

 SAVING SATURATED THICKNESS AND FLOW TERMS ON UNIT  333 FOR MT3DMS
 BY THE LINK-MT3DMS PACKAGE V7 AT TIME STEP    7, STRESS PERIOD    1


 HEAD WILL BE SAVED ON UNIT    2 AT END OF TIME STEP    7, STRESS PERIOD    1

 DRAWDOWN WILL BE SAVED ON UNIT   13 AT END OF TIME STEP    7, STRESS PERIOD    1
1
  VOLUMETRIC BUDGET FOR ENTIRE MODEL AT END OF TIME STEP    7, STRESS PERIOD   1
  ------------------------------------------------------------------------------

     CUMULATIVE VOLUMES      L**3       RATES FOR THIS TIME STEP      L**3/T
     ------------------                 ------------------------

           IN:                                      IN:
           ---                                      ---
             STORAGE     =           8.0737               STORAGE     =       8.9028E-04
       CONSTANT HEAD     =           0.0000         CONSTANT HEAD     =           0.0000
              DRAINS     =           0.0000                DRAINS     =           0.0000
     HEAD DEP BOUNDS     =         241.0935       HEAD DEP BOUNDS     =          34.9686

                TOTAL IN =         249.1672                  TOTAL IN =          34.9695

          OUT:                                     OUT:
          ----                                     ----
             STORAGE     =       6.7540E-09               STORAGE     =       1.5372E-09
       CONSTANT HEAD     =           0.0000         CONSTANT HEAD     =           0.0000
              DRAINS     =         249.1848                DRAINS     =          34.9720
     HEAD DEP BOUNDS     =           0.0000       HEAD DEP BOUNDS     =           0.0000

               TOTAL OUT =         249.1848                 TOTAL OUT =          34.9720

                IN - OUT =      -1.7624E-02                  IN - OUT =      -2.5253E-03

     PERCENT DISCREPANCY =          -0.01         PERCENT DISCREPANCY =          -0.01






         TIME SUMMARY AT END OF TIME STEP    7 IN STRESS PERIOD    1
                    SECONDS     MINUTES      HOURS       DAYS        YEARS
                    -----------------------------------------------------------
   TIME STEP LENGTH  86400.      1440.0      24.000      1.0000     2.73785E-03
 STRESS PERIOD TIME 6.04800E+05  10080.      168.00      7.0000     1.91650E-02
         TOTAL TIME 6.04800E+05  10080.      168.00      7.0000     1.91650E-02
1
 
 SOLVING FOR HEAD 
                                                   Max.-Head-Change                         Max.-Flux-Residual
  Residual-Control   Outer-Iter.   Inner-Iter.     Column Row Layer    Maximum-Head-Change  Column Row Layer    Maximum-Flux-Residual          L2-NORM 
          0                 1           1            39    1    10      -0.3885437268E-04      39    1   11        -0.3994981492E-04      0.1794337061E-03
          0                 2           1            39    1    10      -0.5123910204E-04      31    1   11        -0.1630596483E-04      0.1302744156E-03
          0                 3           1            34    1    16      -0.2046704409E-04      34    1   14        -0.1209572230E-04      0.1157750642E-03
          0                 4           1            39    1    10      -0.1452758516E-04      31    1   11        -0.1041004032E-04      0.1029195345E-03

    ------------------------------------------------
       NWT REQUIRED            4 OUTER ITERATIONS 
       AND A TOTAL OF          4 INNER ITERATIONS.
    ------------------------------------------------

 OUTPUT CONTROL FOR STRESS PERIOD    1   TIME STEP    8
    PRINT BUDGET
    SAVE HEAD FOR ALL LAYERS
    SAVE DRAWDOWN FOR ALL LAYERS
    SAVE BUDGET
 UBDSV1 SAVING "         STORAGE" ON UNIT  40 AT TIME STEP  8, STRESS PERIOD   1
 UBDSV2 SAVING "   CONSTANT HEAD" ON UNIT  40 AT TIME STEP  8, STRESS PERIOD   1
 UBDSV1 SAVING "FLOW RIGHT FACE " ON UNIT  40 AT TIME STEP  8, STRESS PERIOD   1
 UBDSV1 SAVING "FLOW LOWER FACE " ON UNIT  40 AT TIME STEP  8, STRESS PERIOD   1
 UBDSV4 SAVING "          DRAINS" ON UNIT  40 AT TIME STEP  8, STRESS PERIOD   1
 UBDSV4 SAVING " HEAD DEP BOUNDS" ON UNIT  40 AT TIME STEP  8, STRESS PERIOD   1

 SAVING SATURATED THICKNESS AND FLOW TERMS ON UNIT  333 FOR MT3DMS
 BY THE LINK-MT3DMS PACKAGE V7 AT TIME STEP    8, STRESS PERIOD    1


 HEAD WILL BE SAVED ON UNIT    2 AT END OF TIME STEP    8, STRESS PERIOD    1

 DRAWDOWN WILL BE SAVED ON UNIT   13 AT END OF TIME STEP    8, STRESS PERIOD    1
1
  VOLUMETRIC BUDGET FOR ENTIRE MODEL AT END OF TIME STEP    8, STRESS PERIOD   1
  ------------------------------------------------------------------------------

     CUMULATIVE VOLUMES      L**3       RATES FOR THIS TIME STEP      L**3/T
     ------------------                 ------------------------

           IN:                                      IN:
           ---                                      ---
             STORAGE     =           8.0739               STORAGE     =       1.8032E-04
       CONSTANT HEAD     =           0.0000         CONSTANT HEAD     =           0.0000
              DRAINS     =           0.0000                DRAINS     =           0.0000
     HEAD DEP BOUNDS     =         276.0624       HEAD DEP BOUNDS     =          34.9689

                TOTAL IN =         284.1363                  TOTAL IN =          34.9691

          OUT:                                     OUT:
          ----                                     ----
             STORAGE     =       8.3676E-09               STORAGE     =       1.6136E-09
       CONSTANT HEAD     =           0.0000         CONSTANT HEAD     =           0.0000
              DRAINS     =         284.1565                DRAINS     =          34.9716
     HEAD DEP BOUNDS     =           0.0000       HEAD DEP BOUNDS     =           0.0000

               TOTAL OUT =         284.1565                 TOTAL OUT =          34.9716

                IN - OUT =      -2.0203E-02                  IN - OUT =      -2.5902E-03

     PERCENT DISCREPANCY =          -0.01         PERCENT DISCREPANCY =          -0.01






         TIME SUMMARY AT END OF TIME STEP    8 IN STRESS PERIOD    1
                    SECONDS     MINUTES      HOURS       DAYS        YEARS
                    -----------------------------------------------------------
   TIME STEP LENGTH  86400.      1440.0      24.000      1.0000     2.73785E-03
 STRESS PERIOD TIME 6.91200E+05  11520.      192.00      8.0000     2.19028E-02
         TOTAL TIME 6.91200E+05  11520.      192.00      8.0000     2.19028E-02
1
 
 SOLVING FOR HEAD 
                                                   Max.-Head-Change                         Max.-Flux-Residual
  Residual-Control   Outer-Iter.   Inner-Iter.     Column Row Layer    Maximum-Head-Change  Column Row Layer    Maximum-Flux-Residual          L2-NORM 
          0                 1           1            39    1    10      -0.1862727949E-04      40    1   12        -0.1232788691E-04      0.1045335782E-03
          0                 2           1            39    1    10      -0.3565110512E-04      38    1   14        -0.9455058319E-05      0.1000965311E-03

    ------------------------------------------------
       NWT REQUIRED            2 OUTER ITERATIONS 
       AND A TOTAL OF          2 INNER ITERATIONS.
    ------------------------------------------------

 OUTPUT CONTROL FOR STRESS PERIOD    1   TIME STEP    9
    PRINT BUDGET
    SAVE HEAD FOR ALL LAYERS
    SAVE DRAWDOWN FOR ALL LAYERS
    SAVE BUDGET
 UBDSV1 SAVING "         STORAGE" ON UNIT  40 AT TIME STEP  9, STRESS PERIOD   1
 UBDSV2 SAVING "   CONSTANT HEAD" ON UNIT  40 AT TIME STEP  9, STRESS PERIOD   1
 UBDSV1 SAVING "FLOW RIGHT FACE " ON UNIT  40 AT TIME STEP  9, STRESS PERIOD   1
 UBDSV1 SAVING "FLOW LOWER FACE " ON UNIT  40 AT TIME STEP  9, STRESS PERIOD   1
 UBDSV4 SAVING "          DRAINS" ON UNIT  40 AT TIME STEP  9, STRESS PERIOD   1
 UBDSV4 SAVING " HEAD DEP BOUNDS" ON UNIT  40 AT TIME STEP  9, STRESS PERIOD   1

 SAVING SATURATED THICKNESS AND FLOW TERMS ON UNIT  333 FOR MT3DMS
 BY THE LINK-MT3DMS PACKAGE V7 AT TIME STEP    9, STRESS PERIOD    1


 HEAD WILL BE SAVED ON UNIT    2 AT END OF TIME STEP    9, STRESS PERIOD    1

 DRAWDOWN WILL BE SAVED ON UNIT   13 AT END OF TIME STEP    9, STRESS PERIOD    1
1
  VOLUMETRIC BUDGET FOR ENTIRE MODEL AT END OF TIME STEP    9, STRESS PERIOD   1
  ------------------------------------------------------------------------------

     CUMULATIVE VOLUMES      L**3       RATES FOR THIS TIME STEP      L**3/T
     ------------------                 ------------------------

           IN:                                      IN:
           ---                                      ---
             STORAGE     =           8.0739               STORAGE     =       8.0974E-05
       CONSTANT HEAD     =           0.0000         CONSTANT HEAD     =           0.0000
              DRAINS     =           0.0000                DRAINS     =           0.0000
     HEAD DEP BOUNDS     =         311.0315       HEAD DEP BOUNDS     =          34.9691

                TOTAL IN =         319.1054                  TOTAL IN =          34.9691

          OUT:                                     OUT:
          ----                                     ----
             STORAGE     =       1.0489E-08               STORAGE     =       2.1211E-09
       CONSTANT HEAD     =           0.0000         CONSTANT HEAD     =           0.0000
              DRAINS     =         319.1279                DRAINS     =          34.9714
     HEAD DEP BOUNDS     =           0.0000       HEAD DEP BOUNDS     =           0.0000

               TOTAL OUT =         319.1279                 TOTAL OUT =          34.9714

                IN - OUT =      -2.2491E-02                  IN - OUT =      -2.3117E-03

     PERCENT DISCREPANCY =          -0.01         PERCENT DISCREPANCY =          -0.01






         TIME SUMMARY AT END OF TIME STEP    9 IN STRESS PERIOD    1
                    SECONDS     MINUTES      HOURS       DAYS        YEARS
                    -----------------------------------------------------------
   TIME STEP LENGTH  86400.      1440.0      24.000      1.0000     2.73785E-03
 STRESS PERIOD TIME 7.77600E+05  12960.      216.00      9.0000     2.46407E-02
         TOTAL TIME 7.77600E+05  12960.      216.00      9.0000     2.46407E-02
1
 
 SOLVING FOR HEAD 
          0                 1           1            39    1    10      -0.1113459838E-04      40    1   12        -0.1205540008E-04      0.9411218470E-04

    ------------------------------------------------
       NWT REQUIRED            1 OUTER ITERATIONS 
       AND A TOTAL OF          1 INNER ITERATIONS.
    ------------------------------------------------

 OUTPUT CONTROL FOR STRESS PERIOD    1   TIME STEP   10
    PRINT BUDGET
    SAVE HEAD FOR ALL LAYERS
    SAVE DRAWDOWN FOR ALL LAYERS
    SAVE BUDGET
 UBDSV1 SAVING "         STORAGE" ON UNIT  40 AT TIME STEP 10, STRESS PERIOD   1
 UBDSV2 SAVING "   CONSTANT HEAD" ON UNIT  40 AT TIME STEP 10, STRESS PERIOD   1
 UBDSV1 SAVING "FLOW RIGHT FACE " ON UNIT  40 AT TIME STEP 10, STRESS PERIOD   1
 UBDSV1 SAVING "FLOW LOWER FACE " ON UNIT  40 AT TIME STEP 10, STRESS PERIOD   1
 UBDSV4 SAVING "          DRAINS" ON UNIT  40 AT TIME STEP 10, STRESS PERIOD   1
 UBDSV4 SAVING " HEAD DEP BOUNDS" ON UNIT  40 AT TIME STEP 10, STRESS PERIOD   1

 SAVING SATURATED THICKNESS AND FLOW TERMS ON UNIT  333 FOR MT3DMS
 BY THE LINK-MT3DMS PACKAGE V7 AT TIME STEP   10, STRESS PERIOD    1


 HEAD WILL BE SAVED ON UNIT    2 AT END OF TIME STEP   10, STRESS PERIOD    1

 DRAWDOWN WILL BE SAVED ON UNIT   13 AT END OF TIME STEP   10, STRESS PERIOD    1
1
  VOLUMETRIC BUDGET FOR ENTIRE MODEL AT END OF TIME STEP   10, STRESS PERIOD   1
  ------------------------------------------------------------------------------

     CUMULATIVE VOLUMES      L**3       RATES FOR THIS TIME STEP      L**3/T
     ------------------                 ------------------------

           IN:                                      IN:
           ---                                      ---
             STORAGE     =           8.0740               STORAGE     =       1.6994E-05
       CONSTANT HEAD     =           0.0000         CONSTANT HEAD     =           0.0000
              DRAINS     =           0.0000                DRAINS     =           0.0000
     HEAD DEP BOUNDS     =         346.0005       HEAD DEP BOUNDS     =          34.9691

                TOTAL IN =         354.0745                  TOTAL IN =          34.9691

          OUT:                                     OUT:
          ----                                     ----
             STORAGE     =       1.7555E-08               STORAGE     =       7.0664E-09
       CONSTANT HEAD     =           0.0000         CONSTANT HEAD     =           0.0000
              DRAINS     =         354.0993                DRAINS     =          34.9714
     HEAD DEP BOUNDS     =           0.0000       HEAD DEP BOUNDS     =           0.0000

               TOTAL OUT =         354.0993                 TOTAL OUT =          34.9714

                IN - OUT =      -2.4811E-02                  IN - OUT =      -2.3079E-03

     PERCENT DISCREPANCY =          -0.01         PERCENT DISCREPANCY =          -0.01






         TIME SUMMARY AT END OF TIME STEP   10 IN STRESS PERIOD    1
                    SECONDS     MINUTES      HOURS       DAYS        YEARS
                    -----------------------------------------------------------
   TIME STEP LENGTH  86400.      1440.0      24.000      1.0000     2.73785E-03
 STRESS PERIOD TIME 8.64000E+05  14400.      240.00      10.000     2.73785E-02
         TOTAL TIME 8.64000E+05  14400.      240.00      10.000     2.73785E-02
1
1
                            STRESS PERIOD NO.    2, LENGTH =   10.00000    
                            -----------------------------------------------

                              NUMBER OF TIME STEPS =    10

                               MULTIPLIER FOR DELT =     1.000

                            INITIAL TIME STEP SIZE =   1.000000    

 REUSING NON-PARAMETER DRAINS FROM LAST STRESS PERIOD

     75 DRAINS

 BOUND. NO. LAYER   ROW   COL     STAGE      CONDUCTANCE         IFACE           CONDFACT        CELLGRP         
 ----------------------------------------------------------------------------------------------------------------
      1      3      1     13       38.00           0.000           6.000           0.000          -1.000    
      2      4      1     13       38.00           0.000           6.000           0.000          -1.000    
      3      5      1     12       38.00           0.000           6.000           0.000          -1.000    
      4      6      1     12       38.00           0.000           6.000           0.000          -1.000    
      5      7      1     12       38.00           0.000           6.000           0.000          -1.000    
      6      8      1     11       38.00           0.000           6.000           0.000          -1.000    
      7      9      1     11       38.00           0.000           6.000           0.000          -1.000    
      8     10      1     11       38.00           0.000           6.000           0.000          -1.000    
      9     11      1     10       38.00           0.000           6.000           0.000          -1.000    
     10     12      1     10       38.00           0.000           6.000           0.000          -1.000    
     11     13      1     10       38.00           0.000           6.000           0.000          -1.000    
     12     14      1      9       38.00           0.000           6.000           0.000          -1.000    
     13     15      1      9       38.00           0.000           6.000           0.000          -1.000    
     14     16      1      9       38.00           0.000           6.000           0.000          -1.000    
     15     17      1      8       38.00           0.000           6.000           0.000          -1.000    
     16     18      1      8       38.00           0.000           6.000           0.000          -1.000    
     17     19      1      8       22.00          0.1000E+05       6.000           0.000          -1.000    
     18     20      1      7       22.00          0.1000E+05       6.000           0.000          -1.000    
     19     21      1      7       22.00          0.1000E+05       6.000           0.000          -1.000    
     20     22      1      7       22.00          0.1000E+05       6.000           0.000          -1.000    
     21     23      1      6       22.00          0.1000E+05       6.000           0.000          -1.000    
     22     24      1      6       22.00          0.1000E+05       6.000           0.000          -1.000    
     23     25      1      6       22.00          0.1000E+05       6.000           0.000          -1.000    
     24     26      1      5       22.00          0.1000E+05       6.000           0.000          -1.000    
     25     27      1      5       22.00          0.1000E+05       6.000           0.000          -1.000    
     26     28      1      5       22.00          0.1000E+05       6.000           0.000          -1.000    
     27     29      1      4       22.00          0.1000E+05       6.000           0.000          -1.000    
     28     30      1      4       22.00          0.1000E+05       6.000           0.000          -1.000    
     29     31      1      4       22.00          0.1000E+05       6.000           0.000          -1.000    
     30     32      1      3       22.00          0.1000E+05       6.000           0.000          -1.000    
     31     33      1      3       22.00          0.1000E+05       6.000           0.000          -1.000    
     32     34      1      3       22.00          0.1000E+05       6.000           0.000          -1.000    
     33     35      1      2       22.00          0.1000E+05       6.000           0.000          -1.000    
     34     36      1      2       22.00          0.1000E+05       6.000           0.000          -1.000    
     35     37      1      2       22.00          0.1000E+05       6.000           0.000          -1.000    
     36     38      1      1       22.00          0.1000E+05       6.000           0.000          -1.000    
     37     39      1      1       22.00          0.1000E+05       6.000           0.000          -1.000    
     38     40      1      1       22.00          0.1000E+05       6.000           0.000          -1.000    

     38 GHB CELLS
 
 SOLVING FOR HEAD 
                                                   Max.-Head-Change                         Max.-Flux-Residual
  Residual-Control   Outer-Iter.   Inner-Iter.     Column Row Layer    Maximum-Head-Change  Column Row Layer    Maximum-Flux-Residual          L2-NORM 
          0                 1          41             2    1    35      -0.1599996716E+02       6    1   24        -0.1600000000E+06      0.7504665216E+06
          0                 2          21            27    1     6       0.4446564679E+01      20    1    5        -0.1029849109E+02      0.4283698291E+02
          0                 3          16            53    1    17      -0.6656635501E+00      55    1   19        -0.1318287980E+01      0.4190005887E+01
          0                 4           6            56    1    18      -0.4310219806E-01      57    1   20         0.1294132577E+00      0.3096412152E+00
          0                 5           6            63    1    22      -0.8543010451E-02      55    1   19         0.4225787409E-02      0.1649899455E-01
          0                 6           1            45    1    17      -0.4864150003E-03      52    1   20        -0.4562518809E-02      0.2054134956E-01
          0                 7           1            45    1    13      -0.1544925631E-03      52    1   20        -0.2640891767E-03      0.1839766621E-02
          0                 8           1            37    1    16      -0.2327896707E-03      26    1   28        -0.1346226161E-03      0.1234843895E-02
          0                 9           1            31    1    27      -0.1267805258E-03      26    1   28        -0.1541355851E-03      0.1313835805E-02
          0                10           1            27    1    29      -0.1357295819E-03      33    1   23        -0.1268157220E-03      0.1117709279E-02
                                                   Max.-Head-Change                         Max.-Flux-Residual
  Residual-Control   Outer-Iter.   Inner-Iter.     Column Row Layer    Maximum-Head-Change  Column Row Layer    Maximum-Flux-Residual          L2-NORM 
          0                11           1            31    1    29      -0.9495844457E-04      26    1   28        -0.1168792451E-03      0.1086696268E-02
          0                12           1            27    1    29      -0.1094406997E-03      33    1   23        -0.1013896533E-03      0.9553362890E-03
          0                13           1            31    1    29      -0.8452513704E-04      26    1   28        -0.9696655263E-04      0.9400802816E-03
          0                14           1            30    1    36      -0.9014876975E-04      26    1   28        -0.8633416161E-04      0.8535866176E-03
          0                15           1            32    1    32      -0.7750479084E-04      26    1   28        -0.8208695451E-04      0.8268146364E-03
          0                16           1            30    1    36      -0.7727328320E-04      26    1   28        -0.7680331788E-04      0.7729615032E-03
          0                17           1            33    1    33      -0.7114088198E-04      26    1   28        -0.7122356510E-04      0.7405630544E-03
          0                18           1            32    1    40      -0.6804045838E-04      26    1   28        -0.6847974208E-04      0.7034947050E-03
          0                19           1            34    1    36      -0.6512788446E-04      26    1   28        -0.6272721998E-04      0.6705982210E-03
          0                20           1            32    1    40      -0.6087977969E-04      26    1   28        -0.6110108711E-04      0.6419972931E-03
                                                   Max.-Head-Change                         Max.-Flux-Residual
  Residual-Control   Outer-Iter.   Inner-Iter.     Column Row Layer    Maximum-Head-Change  Column Row Layer    Maximum-Flux-Residual          L2-NORM 
          0                21           1            34    1    36      -0.5949832728E-04      26    1   28        -0.5574721803E-04      0.6112555536E-03
          0                22           1            32    1    40      -0.5495086278E-04      26    1   28        -0.5462962474E-04      0.5873394059E-03
          0                23           1            34    1    36      -0.5432455344E-04      26    1   28        -0.4984724052E-04      0.5595601981E-03
          0                24           1            38    1    36      -0.5023819758E-04      26    1   28        -0.4898873470E-04      0.5386026112E-03
          0                25           1            35    1    37      -0.4965005606E-04      26    1   28        -0.4477734046E-04      0.5137665667E-03
          0                26           1            38    1    36      -0.4614154739E-04      26    1   28        -0.4407218577E-04      0.4949192665E-03
          0                27           1            35    1    37      -0.4550030069E-04      26    1   28        -0.4037337516E-04      0.4727305898E-03
          0                28           1            38    1    36      -0.4246542720E-04      26    1   28        -0.3977324008E-04      0.4555371963E-03
          0                29           1            35    1    37      -0.4174961662E-04      26    1   28        -0.3651692117E-04      0.4356489491E-03
          0                30           1            38    1    36      -0.3913870627E-04      26    1   28        -0.3599738952E-04      0.4198407148E-03
                                                   Max.-Head-Change                         Max.-Flux-Residual
  Residual-Control   Outer-Iter.   Inner-Iter.     Column Row Layer    Maximum-Head-Change  Column Row Layer    Maximum-Flux-Residual          L2-NORM 
          0                31           1            35    1    37      -0.3835451387E-04      26    1   28        -0.3311785252E-04      0.4019328743E-03
          0                32           1            38    1    36      -0.3611026515E-04      26    1   28        -0.3266501790E-04      0.3873365771E-03
          0                33           1            35    1    37      -0.3527464328E-04      33    1   23        -0.3015666249E-04      0.3711363487E-03
          0                34           1            39    1    37      -0.3334297307E-04      26    1   28        -0.2971022283E-04      0.3576297385E-03
          0                35           1            35    1    37      -0.3247435723E-04      33    1   23        -0.2764203188E-04      0.3429112392E-03
          0                36           1            39    1    37      -0.3082758101E-04      26    1   28        -0.2707865332E-04      0.3304003734E-03
          0                37           1            35    1    37      -0.2992269446E-04      33    1   23        -0.2536282511E-04      0.3169780575E-03
          0                38           1            39    1    37      -0.2851028547E-04      33    1   23        -0.2473011821E-04      0.3053854242E-03
          0                39           1            42    1    36      -0.2767467858E-04      33    1   23        -0.2329242233E-04      0.2931065360E-03
          0                40           1            39    1    37      -0.2637309482E-04      33    1   23        -0.2268563554E-04      0.2823647399E-03
                                                   Max.-Head-Change                         Max.-Flux-Residual
  Residual-Control   Outer-Iter.   Inner-Iter.     Column Row Layer    Maximum-Head-Change  Column Row Layer    Maximum-Flux-Residual          L2-NORM 
          0                41           1            42    1    36      -0.2564674412E-04      33    1   23        -0.2140800106E-04      0.2711025613E-03
          0                42           1            39    1    37      -0.2440046948E-04      33    1   23        -0.2083312634E-04      0.2611509441E-03
          0                43           1            42    1    36      -0.2376947696E-04      33    1   23        -0.1968984753E-04      0.2507992688E-03
          0                44           1            39    1    37      -0.2257871350E-04      33    1   23        -0.1914997753E-04      0.2415820931E-03
          0                45           1            42    1    36      -0.2203120323E-04      33    1   23        -0.1812082954E-04      0.2320508818E-03
          0                46           1            39    1    37      -0.2089558114E-04      33    1   23        -0.1761709478E-04      0.2235163506E-03
          0                47           1            42    1    36      -0.2042124832E-04      33    1   23        -0.1668598284E-04      0.2147283807E-03
          0                48           1            39    1    37      -0.1934001306E-04      33    1   23        -0.1621821104E-04      0.2068280912E-03
          0                49           1            42    1    36      -0.1892983659E-04      33    1   23        -0.1537217636E-04      0.1987163905E-03
          0                50           1            39    1    37      -0.1790195637E-04      33    1   23        -0.1493935443E-04      0.1914050232E-03
                                                   Max.-Head-Change                         Max.-Flux-Residual
  Residual-Control   Outer-Iter.   Inner-Iter.     Column Row Layer    Maximum-Head-Change  Column Row Layer    Maximum-Flux-Residual          L2-NORM 
          0                51           1            42    1    36      -0.1754799854E-04      33    1   23        -0.1416784033E-04      0.1839109087E-03
          0                52           1            39    1    37      -0.1657223369E-04      33    1   23        -0.1376843468E-04      0.1771460219E-03
          0                53           1            42    1    36      -0.1626749414E-04      33    1   23        -0.1306274089E-04      0.1702175993E-03
          0                54           1            39    1    37      -0.1534244163E-04      33    1   23        -0.1269491850E-04      0.1639594810E-03
          0                55           1            42    1    36      -0.1508074426E-04      33    1   23        -0.1204779144E-04      0.1575504862E-03
          0                56           1            39    1    37      -0.1420486997E-04      33    1   23        -0.1170957106E-04      0.1517620274E-03
          0                57           1            42    1    36      -0.1398077018E-04      33    1   23        -0.1111489536E-04      0.1458309262E-03
          0                58           1            39    1    37      -0.1315243701E-04      33    1   23        -0.1080425025E-04      0.1404775044E-03
          0                59           1            42    1    36      -0.1296113767E-04      33    1   23        -0.1025681445E-04      0.1349867865E-03
          0                60           1            39    1    37      -0.1217863169E-04      33    1   23        -0.9971739274E-05      0.1300361432E-03
                                                   Max.-Head-Change                         Max.-Flux-Residual
  Residual-Control   Outer-Iter.   Inner-Iter.     Column Row Layer    Maximum-Head-Change  Column Row Layer    Maximum-Flux-Residual          L2-NORM 
          0                61           1            42    1    36      -0.1201591228E-04      33    1   23        -0.9467057026E-05      0.1249517660E-03
          0                62           1            39    1    37      -0.1127746123E-04      33    1   23        -0.9205610894E-05      0.1203738887E-03
          0                63           1            42    1    36      -0.1113961429E-04      33    1   23        -0.8739783283E-05      0.1156648257E-03
          0                64           1            39    1    37      -0.1044340878E-04      33    1   23        -0.8500117019E-05      0.1114318261E-03
          0                65           1            42    1    36      -0.1032718198E-04      33    1   23        -0.8069725965E-05      0.1070697049E-03
          0                66           1            39    1    37      -0.9671391830E-05      33    1   23        -0.7850096125E-05      0.1031556977E-03

    ------------------------------------------------
       NWT REQUIRED           66 OUTER ITERATIONS 
       AND A TOTAL OF        151 INNER ITERATIONS.
    ------------------------------------------------

 OUTPUT CONTROL FOR STRESS PERIOD    2   TIME STEP    1
    PRINT BUDGET
    SAVE HEAD FOR ALL LAYERS
    SAVE DRAWDOWN FOR ALL LAYERS
    SAVE BUDGET
 UBDSV1 SAVING "         STORAGE" ON UNIT  40 AT TIME STEP  1, STRESS PERIOD   2
 UBDSV2 SAVING "   CONSTANT HEAD" ON UNIT  40 AT TIME STEP  1, STRESS PERIOD   2
 UBDSV1 SAVING "FLOW RIGHT FACE " ON UNIT  40 AT TIME STEP  1, STRESS PERIOD   2
 UBDSV1 SAVING "FLOW LOWER FACE " ON UNIT  40 AT TIME STEP  1, STRESS PERIOD   2
 UBDSV4 SAVING "          DRAINS" ON UNIT  40 AT TIME STEP  1, STRESS PERIOD   2
 UBDSV4 SAVING " HEAD DEP BOUNDS" ON UNIT  40 AT TIME STEP  1, STRESS PERIOD   2

 SAVING SATURATED THICKNESS AND FLOW TERMS ON UNIT  333 FOR MT3DMS
 BY THE LINK-MT3DMS PACKAGE V7 AT TIME STEP    1, STRESS PERIOD    2


 HEAD WILL BE SAVED ON UNIT    2 AT END OF TIME STEP    1, STRESS PERIOD    2

 DRAWDOWN WILL BE SAVED ON UNIT   13 AT END OF TIME STEP    1, STRESS PERIOD    2
1
  VOLUMETRIC BUDGET FOR ENTIRE MODEL AT END OF TIME STEP    1, STRESS PERIOD   2
  ------------------------------------------------------------------------------

     CUMULATIVE VOLUMES      L**3       RATES FOR THIS TIME STEP      L**3/T
     ------------------                 ------------------------

           IN:                                      IN:
           ---                                      ---
             STORAGE     =          39.8891               STORAGE     =          31.8152
       CONSTANT HEAD     =           0.0000         CONSTANT HEAD     =           0.0000
              DRAINS     =           0.0000                DRAINS     =           0.0000
     HEAD DEP BOUNDS     =         346.0005       HEAD DEP BOUNDS     =           0.0000

                TOTAL IN =         385.8897                  TOTAL IN =          31.8152

          OUT:                                     OUT:
          ----                                     ----
             STORAGE     =       1.7555E-08               STORAGE     =           0.0000
       CONSTANT HEAD     =           0.0000         CONSTANT HEAD     =           0.0000
              DRAINS     =         373.1954                DRAINS     =          19.0961
     HEAD DEP BOUNDS     =          12.7215       HEAD DEP BOUNDS     =          12.7215

               TOTAL OUT =         385.9169                 TOTAL OUT =          31.8176

                IN - OUT =      -2.7222E-02                  IN - OUT =      -2.4281E-03

     PERCENT DISCREPANCY =          -0.01         PERCENT DISCREPANCY =          -0.01






         TIME SUMMARY AT END OF TIME STEP    1 IN STRESS PERIOD    2
                    SECONDS     MINUTES      HOURS       DAYS        YEARS
                    -----------------------------------------------------------
   TIME STEP LENGTH  86400.      1440.0      24.000      1.0000     2.73785E-03
 STRESS PERIOD TIME  86400.      1440.0      24.000      1.0000     2.73785E-03
         TOTAL TIME 9.50400E+05  15840.      264.00      11.000     3.01164E-02
1
 
 SOLVING FOR HEAD 
                                                   Max.-Head-Change                         Max.-Flux-Residual
  Residual-Control   Outer-Iter.   Inner-Iter.     Column Row Layer    Maximum-Head-Change  Column Row Layer    Maximum-Flux-Residual          L2-NORM 
          0                 1          26            19    1     4      -0.3898932476E+01      56    1   20        -0.1200011137E+00      0.1676454232E+01
          0                 2          16            36    1    16      -0.7483251924E+00      48    1   19        -0.2162915997E+01      0.9926121759E+01
          0                 3          11            55    1    18      -0.6910673654E-01      55    1   22        -0.1740170704E+00      0.6193968967E+00
          0                 4           2            61    1    24       0.1268682751E-02      61    1   24         0.9923031407E-02      0.2162041127E-01
          0                 5           1            40    1    10      -0.1717868448E-03      61    1   24         0.2564912300E-03      0.1688880634E-02
          0                 6           1            34    1    38      -0.2674695366E-03      36    1   36        -0.1142307487E-03      0.1429919237E-02
          0                 7           1            33    1    39      -0.1291984621E-03      32    1   22        -0.1017868048E-03      0.1328446290E-02
          0                 8           1            32    1    40      -0.2280579953E-03      32    1   22        -0.9566206282E-04      0.1228617655E-02
          0                 9           1            32    1    38      -0.1068158110E-03      32    1   22        -0.8799945562E-04      0.1167093894E-02
          0                10           1            32    1    40      -0.1888275042E-03      32    1   22        -0.8186177357E-04      0.1081743138E-02
                                                   Max.-Head-Change                         Max.-Flux-Residual
  Residual-Control   Outer-Iter.   Inner-Iter.     Column Row Layer    Maximum-Head-Change  Column Row Layer    Maximum-Flux-Residual          L2-NORM 
          0                11           1            33    1    39      -0.9170588023E-04      54    1   24        -0.8979916925E-04      0.1041017532E-02
          0                12           1            32    1    40      -0.1535339506E-03      36    1   22        -0.7078617745E-04      0.9659079110E-03
          0                13           1            34    1    40      -0.8210088658E-04      54    1   24        -0.8666770179E-04      0.9367852048E-03
          0                14           1            32    1    40      -0.1258836636E-03      43    1   23        -0.6244056979E-04      0.8727585614E-03
          0                15           1            34    1    40      -0.7505238149E-04      54    1   24        -0.8125088323E-04      0.8496594197E-03
          0                16           1            37    1    37      -0.1055889736E-03      54    1   26        -0.5800759942E-04      0.7957839366E-03
          0                17           1            35    1    39      -0.6914779689E-04      54    1   24        -0.7539838467E-04      0.7759045067E-03
          0                18           1            38    1    38      -0.9136214300E-04      54    1   26        -0.5606028103E-04      0.7301840445E-03
          0                19           1            36    1    40      -0.6411555181E-04      54    1   24        -0.6976129274E-04      0.7122403463E-03
          0                20           1            39    1    39      -0.8065492839E-04      54    1   26        -0.5391980676E-04      0.6728241154E-03
                                                   Max.-Head-Change                         Max.-Flux-Residual
  Residual-Control   Outer-Iter.   Inner-Iter.     Column Row Layer    Maximum-Head-Change  Column Row Layer    Maximum-Flux-Residual          L2-NORM 
          0                21           1            36    1    40      -0.5957868993E-04      54    1   24        -0.6448371533E-04      0.6561904738E-03
          0                22           1            39    1    39      -0.7198548233E-04      54    1   26        -0.5162589676E-04      0.6217291810E-03
          0                23           1            36    1    40      -0.5531382288E-04      54    1   24        -0.5958297501E-04      0.6060648823E-03
          0                24           1            40    1    40      -0.6479547938E-04      54    1   26        -0.4922037226E-04      0.5756081800E-03
          0                25           1            36    1    40      -0.5129433701E-04      54    1   24        -0.5504966236E-04      0.5607272665E-03
          0                26           1            40    1    40      -0.5865789642E-04      54    1   26        -0.4674607561E-04      0.5335790258E-03
          0                27           1            36    1    40      -0.4751085059E-04      54    1   24        -0.5086199707E-04      0.5193870237E-03
          0                28           1            40    1    38      -0.5334039903E-04      54    1   26        -0.4424435153E-04      0.4950209634E-03
          0                29           1            43    1    37      -0.4402527298E-04      54    1   24        -0.4699266498E-04      0.4814719323E-03
          0                30           1            40    1    38      -0.4865555358E-04      54    1   26        -0.4175195343E-04      0.4594841027E-03
                                                   Max.-Head-Change                         Max.-Flux-Residual
  Residual-Control   Outer-Iter.   Inner-Iter.     Column Row Layer    Maximum-Head-Change  Column Row Layer    Maximum-Flux-Residual          L2-NORM 
          0                31           1            44    1    38      -0.4094267357E-04      54    1   24        -0.4341471876E-04      0.4465544787E-03
          0                32           1            40    1    38      -0.4445742533E-04      54    1   26        -0.3929910082E-04      0.4266304033E-03
          0                33           1            44    1    38      -0.3809679765E-04      54    1   24        -0.4010418962E-04      0.4143055228E-03
          0                34           1            40    1    38      -0.4067175144E-04      54    1   26        -0.3690914693E-04      0.3961956828E-03
          0                35           1            44    1    38      -0.3541300003E-04      54    1   24        -0.3704042132E-04      0.3844635123E-03
          0                36           1            40    1    38      -0.3724312384E-04      54    1   26        -0.3459922033E-04      0.3679653944E-03
          0                37           1            44    1    36      -0.3295371921E-04      54    1   24        -0.3420555325E-04      0.3568138538E-03
          0                38           1            42    1    40      -0.3417360811E-04      54    1   26        -0.3238123023E-04      0.3417591253E-03
          0                39           1            44    1    36      -0.3065525413E-04      54    1   24        -0.3158383666E-04      0.3311751093E-03
          0                40           1            42    1    40      -0.3147183959E-04      54    1   26        -0.3026290349E-04      0.3174206023E-03
                                                   Max.-Head-Change                         Max.-Flux-Residual
  Residual-Control   Outer-Iter.   Inner-Iter.     Column Row Layer    Maximum-Head-Change  Column Row Layer    Maximum-Flux-Residual          L2-NORM 
          0                41           1            44    1    34      -0.2855039754E-04      54    1   24        -0.2916102923E-04      0.3073897645E-03
          0                42           1            42    1    40      -0.2899690010E-04      54    1   26        -0.2824870683E-04      0.2948112065E-03
          0                43           1            44    1    34      -0.2658699222E-04      54    1   24        -0.2692393039E-04      0.2853180570E-03
          0                44           1            42    1    40      -0.2672806808E-04      54    1   26        -0.2634061153E-04      0.2738057552E-03
          0                45           1            44    1    34      -0.2474711328E-04      54    1   24        -0.2486005374E-04      0.2648338506E-03
          0                46           1            42    1    40      -0.2464728394E-04      54    1   26        -0.2453870280E-04      0.2542897561E-03
          0                47           1            44    1    34      -0.2302532205E-04      54    1   24        -0.2295742794E-04      0.2458218909E-03
          0                48           1            42    1    38      -0.2277955056E-04      54    1   26        -0.2284164950E-04      0.2361576195E-03
          0                49           1            45    1    35      -0.2144980411E-04      56    1   26        -0.2124686728E-04      0.2281759857E-03
          0                50           1            42    1    38      -0.2107489502E-04      54    1   26        -0.2124706791E-04      0.2193114881E-03
                                                   Max.-Head-Change                         Max.-Flux-Residual
  Residual-Control   Outer-Iter.   Inner-Iter.     Column Row Layer    Maximum-Head-Change  Column Row Layer    Maximum-Flux-Residual          L2-NORM 
          0                51           1            45    1    35      -0.1998078850E-04      56    1   26        -0.1978738757E-04      0.2117977987E-03
          0                52           1            43    1    39      -0.1950938046E-04      54    1   26        -0.1975179867E-04      0.2036604457E-03
          0                53           1            45    1    35      -0.1860482692E-04      56    1   26        -0.1841960298E-04      0.1965960362E-03
          0                54           1            43    1    39      -0.1808031090E-04      54    1   26        -0.1835212126E-04      0.1891199507E-03
          0                55           1            45    1    35      -0.1731718280E-04      56    1   26        -0.1713954862E-04      0.1824858752E-03
          0                56           1            43    1    39      -0.1675910198E-04      54    1   26        -0.1704392633E-04      0.1756113931E-03
          0                57           1            45    1    35      -0.1611318251E-04      56    1   26        -0.1594299556E-04      0.1693885174E-03
          0                58           1            43    1    39      -0.1553716622E-04      54    1   26        -0.1582285265E-04      0.1630617081E-03
          0                59           1            45    1    35      -0.1498825250E-04      56    1   26        -0.1482558585E-04      0.1572308130E-03
          0                60           1            43    1    39      -0.1440662802E-04      54    1   26        -0.1468439839E-04      0.1514030199E-03
                                                   Max.-Head-Change                         Max.-Flux-Residual
  Residual-Control   Outer-Iter.   Inner-Iter.     Column Row Layer    Maximum-Head-Change  Column Row Layer    Maximum-Flux-Residual          L2-NORM 
          0                61           1            45    1    35      -0.1393794042E-04      56    1   26        -0.1378293541E-04      0.1459449068E-03
          0                62           1            43    1    39      -0.1336027140E-04      54    1   26        -0.1362401250E-04      0.1405722938E-03
          0                63           1            45    1    35      -0.1295793563E-04      56    1   26        -0.1281071167E-04      0.1354678992E-03
          0                64           1            43    1    39      -0.1239148576E-04      54    1   26        -0.1263716842E-04      0.1305110012E-03
          0                65           1            46    1    36      -0.1205259300E-04      56    1   26        -0.1190468683E-04      0.1257415048E-03
          0                66           1            43    1    39      -0.1149422463E-04      54    1   26        -0.1171941935E-04      0.1211647939E-03
          0                67           1            46    1    36      -0.1120955675E-04      56    1   26        -0.1106077693E-04      0.1167117277E-03
          0                68           1            42    1    36      -0.1066384698E-04      54    1   26        -0.1086644320E-04      0.1124831966E-03
          0                69           1            46    1    36      -0.1042272036E-04      56    1   26        -0.1027506460E-04      0.1083285389E-03
          0                70           1            42    1    36      -0.9895598758E-05      54    1   26        -0.1007407403E-04      0.1044193180E-03
                                                   Max.-Head-Change                         Max.-Flux-Residual
  Residual-Control   Outer-Iter.   Inner-Iter.     Column Row Layer    Maximum-Head-Change  Column Row Layer    Maximum-Flux-Residual          L2-NORM 
          0                71           1            46    1    36      -0.9688798443E-05      56    1   26        -0.9543813292E-05      0.1005455784E-03

    ------------------------------------------------
       NWT REQUIRED           71 OUTER ITERATIONS 
       AND A TOTAL OF        122 INNER ITERATIONS.
    ------------------------------------------------

 OUTPUT CONTROL FOR STRESS PERIOD    2   TIME STEP    2
    PRINT BUDGET
    SAVE HEAD FOR ALL LAYERS
    SAVE DRAWDOWN FOR ALL LAYERS
    SAVE BUDGET
 UBDSV1 SAVING "         STORAGE" ON UNIT  40 AT TIME STEP  2, STRESS PERIOD   2
 UBDSV2 SAVING "   CONSTANT HEAD" ON UNIT  40 AT TIME STEP  2, STRESS PERIOD   2
 UBDSV1 SAVING "FLOW RIGHT FACE " ON UNIT  40 AT TIME STEP  2, STRESS PERIOD   2
 UBDSV1 SAVING "FLOW LOWER FACE " ON UNIT  40 AT TIME STEP  2, STRESS PERIOD   2
 UBDSV4 SAVING "          DRAINS" ON UNIT  40 AT TIME STEP  2, STRESS PERIOD   2
 UBDSV4 SAVING " HEAD DEP BOUNDS" ON UNIT  40 AT TIME STEP  2, STRESS PERIOD   2

 SAVING SATURATED THICKNESS AND FLOW TERMS ON UNIT  333 FOR MT3DMS
 BY THE LINK-MT3DMS PACKAGE V7 AT TIME STEP    2, STRESS PERIOD    2


 HEAD WILL BE SAVED ON UNIT    2 AT END OF TIME STEP    2, STRESS PERIOD    2

 DRAWDOWN WILL BE SAVED ON UNIT   13 AT END OF TIME STEP    2, STRESS PERIOD    2
1
  VOLUMETRIC BUDGET FOR ENTIRE MODEL AT END OF TIME STEP    2, STRESS PERIOD   2
  ------------------------------------------------------------------------------

     CUMULATIVE VOLUMES      L**3       RATES FOR THIS TIME STEP      L**3/T
     ------------------                 ------------------------

           IN:                                      IN:
           ---                                      ---
             STORAGE     =          53.1286               STORAGE     =          13.2395
       CONSTANT HEAD     =           0.0000         CONSTANT HEAD     =           0.0000
              DRAINS     =           0.0000                DRAINS     =           0.0000
     HEAD DEP BOUNDS     =         347.5981       HEAD DEP BOUNDS     =           1.5975

                TOTAL IN =         400.7267                  TOTAL IN =          14.8370

          OUT:                                     OUT:
          ----                                     ----
             STORAGE     =       1.7555E-08               STORAGE     =           0.0000
       CONSTANT HEAD     =           0.0000         CONSTANT HEAD     =           0.0000
              DRAINS     =         387.9214                DRAINS     =          14.7260
     HEAD DEP BOUNDS     =          12.8346       HEAD DEP BOUNDS     =           0.1131

               TOTAL OUT =         400.7561                 TOTAL OUT =          14.8392

                IN - OUT =      -2.9419E-02                  IN - OUT =      -2.1772E-03

     PERCENT DISCREPANCY =          -0.01         PERCENT DISCREPANCY =          -0.01






         TIME SUMMARY AT END OF TIME STEP    2 IN STRESS PERIOD    2
                    SECONDS     MINUTES      HOURS       DAYS        YEARS
                    -----------------------------------------------------------
   TIME STEP LENGTH  86400.      1440.0      24.000      1.0000     2.73785E-03
 STRESS PERIOD TIME 1.72800E+05  2880.0      48.000      2.0000     5.47570E-03
         TOTAL TIME 1.03680E+06  17280.      288.00      12.000     3.28542E-02
1
 
 SOLVING FOR HEAD 
                                                   Max.-Head-Change                         Max.-Flux-Residual
  Residual-Control   Outer-Iter.   Inner-Iter.     Column Row Layer    Maximum-Head-Change  Column Row Layer    Maximum-Flux-Residual          L2-NORM 
          0                 1          21            43    1    17      -0.1674657980E+01      39    1   19        -0.1200011420E+00      0.1007070811E+01
          0                 2          16            61    1    23      -0.4440382606E+00      56    1   24         0.9597325869E+00      0.4696452207E+01
          0                 3           2            75    1    28      -0.2916573476E-01      73    1   28         0.1013313824E+00      0.2479417394E+00
          0                 4           1            76    1    28       0.5216157037E-03      76    1   28         0.2172037270E-02      0.5533246759E-02
          0                 5           1            60    1    40      -0.4879981557E-03      75    1   31        -0.2272717997E-03      0.2649225451E-02
          0                 6           1            68    1    40      -0.2801189087E-03      67    1   31        -0.2239174768E-03      0.2471331448E-02
          0                 7           1            68    1    26      -0.2093867492E-03      72    1   30        -0.2144736511E-03      0.2298247693E-02
          0                 8           1            66    1    40      -0.2384531815E-03      67    1   31        -0.1792566672E-03      0.2156400091E-02
          0                 9           1            68    1    26      -0.1832961301E-03      53    1   29        -0.1840299859E-03      0.2090433331E-02
          0                10           1            61    1    21      -0.2091147752E-03      67    1   31        -0.1576259592E-03      0.1969067375E-02
                                                   Max.-Head-Change                         Max.-Flux-Residual
  Residual-Control   Outer-Iter.   Inner-Iter.     Column Row Layer    Maximum-Head-Change  Column Row Layer    Maximum-Flux-Residual          L2-NORM 
          0                11           1            68    1    26      -0.1654050587E-03      53    1   29        -0.1752256308E-03      0.1912110258E-02
          0                12           1            61    1    21      -0.1895567005E-03      53    1   29        -0.1512716403E-03      0.1812167183E-02
          0                13           1            55    1    37      -0.1521958052E-03      53    1   29        -0.1646276334E-03      0.1758283657E-02
          0                14           1            51    1    39      -0.1741586752E-03      53    1   29        -0.1438704518E-03      0.1672271638E-02
          0                15           1            48    1    40      -0.1444557676E-03      53    1   29        -0.1536822886E-03      0.1621619878E-02
          0                16           1            51    1    39      -0.1621574986E-03      53    1   29        -0.1355740705E-03      0.1545316653E-02
          0                17           1            48    1    40      -0.1362768270E-03      53    1   29        -0.1429063512E-03      0.1497967858E-02
          0                18           1            51    1    37      -0.1507675013E-03      53    1   29        -0.1269981657E-03      0.1429121873E-02
          0                19           1            48    1    40      -0.1278542404E-03      53    1   29        -0.1325554368E-03      0.1385037674E-02
          0                20           1            51    1    37      -0.1400582255E-03      53    1   29        -0.1185099853E-03      0.1322341692E-02
                                                   Max.-Head-Change                         Max.-Flux-Residual
  Residual-Control   Outer-Iter.   Inner-Iter.     Column Row Layer    Maximum-Head-Change  Column Row Layer    Maximum-Flux-Residual          L2-NORM 
          0                21           1            48    1    40      -0.1195229498E-03      53    1   29        -0.1227582303E-03      0.1281386134E-02
          0                22           1            51    1    37      -0.1299408997E-03      53    1   29        -0.1103158463E-03      0.1223995823E-02
          0                23           1            48    1    40      -0.1114711799E-03      53    1   29        -0.1135704676E-03      0.1185980966E-02
          0                24           1            51    1    37      -0.1204330298E-03      53    1   29        -0.1025231237E-03      0.1133293423E-02
          0                25           1            48    1    40      -0.1037962223E-03      53    1   29        -0.1050050246E-03      0.1098013302E-02
          0                26           1            51    1    37      -0.1115338559E-03      53    1   29        -0.9518054563E-04      0.1049561364E-02
          0                27           1            48    1    40      -0.9654243055E-04      53    1   29        -0.9705015825E-04      0.1016811035E-02
          0                28           1            51    1    37      -0.1032299607E-03      53    1   29        -0.8830273913E-04      0.9722102190E-03
          0                29           1            48    1    40      -0.8972406842E-04      53    1   29        -0.8968057557E-04      0.9417949588E-03
          0                30           1            51    1    37      -0.9549992595E-04      53    1   29        -0.8188481894E-04      0.9007153916E-03
                                                   Max.-Head-Change                         Max.-Flux-Residual
  Residual-Control   Outer-Iter.   Inner-Iter.     Column Row Layer    Maximum-Head-Change  Column Row Layer    Maximum-Flux-Residual          L2-NORM 
          0                31           1            48    1    40      -0.8333847981E-04      53    1   29        -0.8286408823E-04      0.8724544272E-03
          0                32           1            51    1    37      -0.8831763265E-04      53    1   29        -0.7591102309E-04      0.8346052140E-03
          0                33           1            47    1    22      -0.7985961428E-04      53    1   29        -0.7656559018E-04      0.8094700918E-03
          0                34           1            47    1    14      -0.7994250174E-04      53    1   29        -0.7063701062E-04      0.7733221914E-03
          0                35           1            47    1    22      -0.7327867955E-04      53    1   29        -0.7043747203E-04      0.7476628744E-03
          0                36           1            47    1    14      -0.7520938528E-04      53    1   29        -0.6548510453E-04      0.7164285978E-03
          0                37           1            47    1    22      -0.6716965586E-04      53    1   29        -0.6535793028E-04      0.6930787888E-03
          0                38           1            47    1    14      -0.6999708286E-04      53    1   29        -0.6055496965E-04      0.6634949822E-03
          0                39           1            47    1    22      -0.6199049999E-04      53    1   29        -0.6046812766E-04      0.6421644473E-03
          0                40           1            47    1    14      -0.6491627938E-04      53    1   29        -0.5605340098E-04      0.6146674027E-03
                                                   Max.-Head-Change                         Max.-Flux-Residual
  Residual-Control   Outer-Iter.   Inner-Iter.     Column Row Layer    Maximum-Head-Change  Column Row Layer    Maximum-Flux-Residual          L2-NORM 
          0                41           1            47    1    22      -0.5735694763E-04      53    1   29        -0.5589664684E-04      0.5949297386E-03
          0                42           1            47    1    14      -0.6012230628E-04      53    1   29        -0.5190503612E-04      0.5695215505E-03
          0                43           1            47    1    22      -0.5312442116E-04      53    1   29        -0.5165741112E-04      0.5511729851E-03
          0                44           1            47    1    14      -0.5565658970E-04      53    1   29        -0.4806961377E-04      0.5277449102E-03
          0                45           1            47    1    22      -0.4922818250E-04      53    1   29        -0.4773878015E-04      0.5106599287E-03
          0                46           1            47    1    14      -0.5151744842E-04      53    1   29        -0.4451964384E-04      0.4890718304E-03
          0                47           1            47    1    22      -0.4563013526E-04      53    1   29        -0.4412074722E-04      0.4731546759E-03
          0                48           1            47    1    14      -0.4768849714E-04      53    1   29        -0.4123255044E-04      0.4532635277E-03
          0                49           1            48    1    38      -0.4230394697E-04      53    1   29        -0.4078145122E-04      0.4384323777E-03
          0                50           1            47    1    14      -0.4414907445E-04      53    1   29        -0.3818833633E-04      0.4201018240E-03
                                                   Max.-Head-Change                         Max.-Flux-Residual
  Residual-Control   Outer-Iter.   Inner-Iter.     Column Row Layer    Maximum-Head-Change  Column Row Layer    Maximum-Flux-Residual          L2-NORM 
          0                51           1            47    1    22      -0.3922279177E-04      53    1   29        -0.3769949461E-04      0.4062831155E-03
          0                52           1            47    1    14      -0.4087797174E-04      53    1   29        -0.3536878884E-04      0.3893862901E-03
          0                53           1            47    1    22      -0.3637085507E-04      53    1   29        -0.3485471183E-04      0.3765124420E-03
          0                54           1            47    1    15      -0.3785475589E-04      53    1   29        -0.3275715986E-04      0.3609324388E-03
          0                55           1            47    1    22      -0.3372895189E-04      53    1   29        -0.3222837898E-04      0.3489407795E-03
          0                56           1            47    1    15      -0.3506022852E-04      53    1   29        -0.3033799763E-04      0.3345703181E-03
          0                57           1            47    1    22      -0.3128088940E-04      53    1   29        -0.2980322111E-04      0.3234024700E-03
          0                58           1            47    1    15      -0.3247655158E-04      53    1   29        -0.2809703227E-04      0.3101432923E-03
          0                59           1            47    1    22      -0.2901188172E-04      53    1   29        -0.2756334828E-04      0.2997447482E-03
          0                60           1            47    1    15      -0.3008724288E-04      53    1   29        -0.2602107909E-04      0.2875069427E-03
                                                   Max.-Head-Change                         Max.-Flux-Residual
  Residual-Control   Outer-Iter.   Inner-Iter.     Column Row Layer    Maximum-Head-Change  Column Row Layer    Maximum-Flux-Residual          L2-NORM 
          0                61           1            47    1    14      -0.2690841056E-04      53    1   29        -0.2549416334E-04      0.2778267378E-03
          0                62           1            47    1    15      -0.2787712418E-04      53    1   29        -0.2409795377E-04      0.2665280625E-03
          0                63           1            47    1    14      -0.2495803626E-04      53    1   29        -0.2358226607E-04      0.2575185003E-03
          0                64           1            47    1    22      -0.2583225906E-04      53    1   29        -0.2231639138E-04      0.2470837324E-03
          0                65           1            47    1    14      -0.2314933563E-04      53    1   29        -0.2181535768E-04      0.2387001484E-03
          0                66           1            47    1    22      -0.2393981508E-04      53    1   29        -0.2066597386E-04      0.2290604723E-03
          0                67           1            47    1    14      -0.2147181341E-04      53    1   29        -0.2018214778E-04      0.2212610278E-03
          0                68           1            47    1    22      -0.2218801692E-04      53    1   29        -0.1913706319E-04      0.2123534666E-03
          0                69           1            47    1    14      -0.1991580624E-04      53    1   29        -0.1867226976E-04      0.2050989649E-03
          0                70           1            47    1    22      -0.2056606175E-04      53    1   29        -0.1772073810E-04      0.1968658557E-03
                                                   Max.-Head-Change                         Max.-Flux-Residual
  Residual-Control   Outer-Iter.   Inner-Iter.     Column Row Layer    Maximum-Head-Change  Column Row Layer    Maximum-Flux-Residual          L2-NORM 
          0                71           1            47    1    14      -0.1847240454E-04      53    1   29        -0.1727620142E-04      0.1901195758E-03
          0                72           1            47    1    22      -0.1906402789E-04      53    1   29        -0.1640873856E-04      0.1825080888E-03
          0                73           1            47    1    14      -0.1713338753E-04      53    1   29        -0.1598519009E-04      0.1762356371E-03
          0                74           1            47    1    22      -0.1767279751E-04      53    1   29        -0.1519341424E-04      0.1691973384E-03
          0                75           1            47    1    14      -0.1589116078E-04      53    1   29        -0.1479118725E-04      0.1633665089E-03
          0                76           1            47    1    22      -0.1638398744E-04      53    1   29        -0.1406767740E-04      0.1568569641E-03
          0                77           1            47    1    14      -0.1473870401E-04      53    1   29        -0.1368678639E-04      0.1514376096E-03
          0                78           1            47    1    22      -0.1518988554E-04      53    1   29        -0.1302496025E-04      0.1454160260E-03
          0                79           1            47    1    14      -0.1366951893E-04      53    1   29        -0.1266516927E-04      0.1403799390E-03
          0                80           1            47    1    22      -0.1408339005E-04      53    1   29        -0.1205917516E-04      0.1348088370E-03
                                                   Max.-Head-Change                         Max.-Flux-Residual
  Residual-Control   Outer-Iter.   Inner-Iter.     Column Row Layer    Maximum-Head-Change  Column Row Layer    Maximum-Flux-Residual          L2-NORM 
          0                81           1            47    1    14      -0.1267758987E-04      53    1   29        -0.1172005395E-04      0.1301296384E-03
          0                82           1            47    1    22      -0.1305795690E-04      53    1   29        -0.1116467959E-04      0.1249745615E-03
          0                83           1            47    1    14      -0.1175734362E-04      53    1   29        -0.1084565042E-04      0.1206275914E-03
          0                84           1            47    1    22      -0.1210755340E-04      53    1   29        -0.1033624287E-04      0.1158568403E-03
          0                85           1            47    1    14      -0.1090361210E-04      53    1   29        -0.1003661939E-04      0.1118190593E-03
          0                86           1            47    1    22      -0.1122661362E-04      53    1   29        -0.9569015447E-05      0.1074034529E-03
          0                87           1            47    1    14      -0.1011160595E-04      53    1   29        -0.9288035017E-05      0.1036533451E-03

    ------------------------------------------------
       NWT REQUIRED           87 OUTER ITERATIONS 
       AND A TOTAL OF        123 INNER ITERATIONS.
    ------------------------------------------------

 OUTPUT CONTROL FOR STRESS PERIOD    2   TIME STEP    3
    PRINT BUDGET
    SAVE HEAD FOR ALL LAYERS
    SAVE DRAWDOWN FOR ALL LAYERS
    SAVE BUDGET
 UBDSV1 SAVING "         STORAGE" ON UNIT  40 AT TIME STEP  3, STRESS PERIOD   2
 UBDSV2 SAVING "   CONSTANT HEAD" ON UNIT  40 AT TIME STEP  3, STRESS PERIOD   2
 UBDSV1 SAVING "FLOW RIGHT FACE " ON UNIT  40 AT TIME STEP  3, STRESS PERIOD   2
 UBDSV1 SAVING "FLOW LOWER FACE " ON UNIT  40 AT TIME STEP  3, STRESS PERIOD   2
 UBDSV4 SAVING "          DRAINS" ON UNIT  40 AT TIME STEP  3, STRESS PERIOD   2
 UBDSV4 SAVING " HEAD DEP BOUNDS" ON UNIT  40 AT TIME STEP  3, STRESS PERIOD   2

 SAVING SATURATED THICKNESS AND FLOW TERMS ON UNIT  333 FOR MT3DMS
 BY THE LINK-MT3DMS PACKAGE V7 AT TIME STEP    3, STRESS PERIOD    2


 HEAD WILL BE SAVED ON UNIT    2 AT END OF TIME STEP    3, STRESS PERIOD    2

 DRAWDOWN WILL BE SAVED ON UNIT   13 AT END OF TIME STEP    3, STRESS PERIOD    2
1
  VOLUMETRIC BUDGET FOR ENTIRE MODEL AT END OF TIME STEP    3, STRESS PERIOD   2
  ------------------------------------------------------------------------------

     CUMULATIVE VOLUMES      L**3       RATES FOR THIS TIME STEP      L**3/T
     ------------------                 ------------------------

           IN:                                      IN:
           ---                                      ---
             STORAGE     =          59.5751               STORAGE     =           6.4465
       CONSTANT HEAD     =           0.0000         CONSTANT HEAD     =           0.0000
              DRAINS     =           0.0000                DRAINS     =           0.0000
     HEAD DEP BOUNDS     =         353.5464       HEAD DEP BOUNDS     =           5.9483

                TOTAL IN =         413.1214                  TOTAL IN =          12.3948

          OUT:                                     OUT:
          ----                                     ----
             STORAGE     =       1.7555E-08               STORAGE     =           0.0000
       CONSTANT HEAD     =           0.0000         CONSTANT HEAD     =           0.0000
              DRAINS     =         400.3185                DRAINS     =          12.3970
     HEAD DEP BOUNDS     =          12.8346       HEAD DEP BOUNDS     =           0.0000

               TOTAL OUT =         413.1531                 TOTAL OUT =          12.3970

                IN - OUT =      -3.1677E-02                  IN - OUT =      -2.2621E-03

     PERCENT DISCREPANCY =          -0.01         PERCENT DISCREPANCY =          -0.02






         TIME SUMMARY AT END OF TIME STEP    3 IN STRESS PERIOD    2
                    SECONDS     MINUTES      HOURS       DAYS        YEARS
                    -----------------------------------------------------------
   TIME STEP LENGTH  86400.      1440.0      24.000      1.0000     2.73785E-03
 STRESS PERIOD TIME 2.59200E+05  4320.0      72.000      3.0000     8.21355E-03
         TOTAL TIME 1.12320E+06  18720.      312.00      13.000     3.55921E-02
1
 
 SOLVING FOR HEAD 
                                                   Max.-Head-Change                         Max.-Flux-Residual
  Residual-Control   Outer-Iter.   Inner-Iter.     Column Row Layer    Maximum-Head-Change  Column Row Layer    Maximum-Flux-Residual          L2-NORM 
          0                 1          16            47    1    21      -0.8752058489E+00      43    1   21        -0.1082554646E+00      0.6127602890E+00
          0                 2          11            55    1    23      -0.2385283372E+00      61    1   25         0.4973833862E+00      0.2069037390E+01
          0                 3           2            62    1    24       0.7735222890E-02      55    1   25        -0.4379040521E-01      0.9846949032E-01
          0                 4           1            61    1    25      -0.3272293068E-03      61    1   25        -0.1442900007E-02      0.4182210923E-02
          0                 5           1            35    1    39      -0.9221886773E-03      36    1   36        -0.2723713118E-03      0.3181591524E-02
          0                 6           1            31    1    39      -0.2898404626E-03      44    1   23        -0.3054099705E-03      0.2954281736E-02
          0                 7           1            31    1    39      -0.3929996058E-03      45    1   27        -0.2187412526E-03      0.2682780481E-02
          0                 8           1            33    1    37      -0.3037368423E-03      41    1   27        -0.2027147052E-03      0.2554914924E-02
          0                 9           1            32    1    40      -0.2601462943E-03      45    1   27        -0.2121836260E-03      0.2415827684E-02
          0                10           1            34    1    38      -0.3178124244E-03      41    1   27        -0.1823528674E-03      0.2293102899E-02
                                                   Max.-Head-Change                         Max.-Flux-Residual
  Residual-Control   Outer-Iter.   Inner-Iter.     Column Row Layer    Maximum-Head-Change  Column Row Layer    Maximum-Flux-Residual          L2-NORM 
          0                11           1            32    1    40      -0.2102476794E-03      45    1   27        -0.2024774874E-03      0.2203024247E-02
          0                12           1            35    1    39      -0.2963614539E-03      41    1   27        -0.1655002393E-03      0.2078082120E-02
          0                13           1            32    1    40      -0.1866339007E-03      45    1   27        -0.1860578140E-03      0.2009958361E-02
          0                14           1            35    1    37      -0.2586270639E-03      41    1   27        -0.1514696178E-03      0.1894082176E-02
          0                15           1            34    1    40      -0.1719001620E-03      45    1   27        -0.1683804038E-03      0.1836682593E-02
          0                16           1            36    1    38      -0.2239883917E-03      41    1   27        -0.1392525078E-03      0.1736441744E-02
          0                17           1            34    1    40      -0.1594861573E-03      45    1   27        -0.1522068782E-03      0.1685010385E-02
          0                18           1            37    1    37      -0.1962990900E-03      41    1   27        -0.1281335974E-03      0.1599222495E-02
          0                19           1            40    1    34      -0.1484762642E-03      45    1   27        -0.1378642293E-03      0.1552015107E-02
          0                20           1            37    1    37      -0.1744845776E-03      41    1   27        -0.1178510935E-03      0.1477676191E-02
                                                   Max.-Head-Change                         Max.-Flux-Residual
  Residual-Control   Outer-Iter.   Inner-Iter.     Column Row Layer    Maximum-Head-Change  Column Row Layer    Maximum-Flux-Residual          L2-NORM 
          0                21           1            40    1    34      -0.1386426445E-03      45    1   27        -0.1251197754E-03      0.1433880523E-02
          0                22           1            38    1    38      -0.1564767077E-03      41    1   27        -0.1083198250E-03      0.1368594684E-02
          0                23           1            41    1    35      -0.1293844469E-03      45    1   27        -0.1137409262E-03      0.1327670163E-02
          0                24           1            38    1    38      -0.1413620165E-03      41    1   27        -0.9949507233E-04      0.1269741585E-02
          0                25           1            41    1    35      -0.1208485882E-03      45    1   27        -0.1035476090E-03      0.1231294490E-02
          0                26           1            39    1    39      -0.1285532779E-03      41    1   27        -0.9134208639E-04      0.1179486365E-02
          0                27           1            41    1    35      -0.1127461286E-03      45    1   27        -0.9439587794E-04      0.1143234352E-02
          0                28           1            39    1    39      -0.1173248876E-03      51    1   31        -0.8506718643E-04      0.1096606769E-02
          0                29           1            41    1    35      -0.1050931401E-03      64    1   28        -0.8662276059E-04      0.1062350010E-02
          0                30           1            39    1    39      -0.1073719852E-03      51    1   31        -0.7968225506E-04      0.1020166354E-02
                                                   Max.-Head-Change                         Max.-Flux-Residual
  Residual-Control   Outer-Iter.   Inner-Iter.     Column Row Layer    Maximum-Head-Change  Column Row Layer    Maximum-Flux-Residual          L2-NORM 
          0                31           1            42    1    36      -0.9809636312E-04      64    1   28        -0.8204066981E-04      0.9877627075E-03
          0                32           1            40    1    40      -0.9857864215E-04      51    1   31        -0.7454708117E-04      0.9494325045E-03
          0                33           1            42    1    36      -0.9151047530E-04      64    1   28        -0.7752668938E-04      0.9187780286E-03
          0                34           1            46    1    36      -0.9085799095E-04      64    1   28        -0.7029928975E-04      0.8838198238E-03
          0                35           1            42    1    36      -0.8530919406E-04      64    1   28        -0.7312064196E-04      0.8548343715E-03
          0                36           1            46    1    36      -0.8406459009E-04      64    1   28        -0.6690295862E-04      0.8228503474E-03
          0                37           1            42    1    36      -0.7948301341E-04      64    1   28        -0.6885086754E-04      0.7954674651E-03
          0                38           1            46    1    36      -0.7783810407E-04      64    1   28        -0.6347529722E-04      0.7661252899E-03
          0                39           1            42    1    36      -0.7401948828E-04      64    1   28        -0.6473695774E-04      0.7402855012E-03
          0                40           1            46    1    36      -0.7211866475E-04      64    1   28        -0.6006431923E-04      0.7133048610E-03
                                                   Max.-Head-Change                         Max.-Flux-Residual
  Residual-Control   Outer-Iter.   Inner-Iter.     Column Row Layer    Maximum-Head-Change  Column Row Layer    Maximum-Flux-Residual          L2-NORM 
          0                41           1            43    1    37      -0.6893335806E-04      64    1   28        -0.6079185076E-04      0.6889514902E-03
          0                42           1            46    1    36      -0.6685515692E-04      64    1   28        -0.5670724065E-04      0.6640938196E-03
          0                43           1            43    1    37      -0.6420046706E-04      64    1   28        -0.5702341036E-04      0.6411706208E-03
          0                44           1            46    1    36      -0.6200355108E-04      64    1   28        -0.5343235802E-04      0.6182311277E-03
          0                45           1            43    1    37      -0.5977037409E-04      64    1   28        -0.5343561614E-04      0.5966811384E-03
          0                46           1            46    1    36      -0.5752560990E-04      64    1   28        -0.5026063636E-04      0.5754825420E-03
          0                47           1            43    1    37      -0.5586290395E-04      64    1   28        -0.5002946546E-04      0.5552195779E-03
          0                48           1            46    1    36      -0.5346687411E-04      64    1   28        -0.4723413878E-04      0.5354826990E-03
          0                49           1            43    1    37      -0.5174082775E-04      64    1   28        -0.4681806828E-04      0.5163266463E-03
          0                50           1            46    1    36      -0.4953018416E-04      64    1   28        -0.4427064212E-04      0.4978960465E-03
                                                   Max.-Head-Change                         Max.-Flux-Residual
  Residual-Control   Outer-Iter.   Inner-Iter.     Column Row Layer    Maximum-Head-Change  Column Row Layer    Maximum-Flux-Residual          L2-NORM 
          0                51           1            43    1    37      -0.4808717547E-04      64    1   28        -0.4375615143E-04      0.4800443732E-03
          0                52           1            47    1    37      -0.4593910396E-04      64    1   28        -0.4147635519E-04      0.4630416086E-03
          0                53           1            43    1    37      -0.4469304534E-04      64    1   28        -0.4086958069E-04      0.4463233971E-03
          0                54           1            47    1    37      -0.4263648147E-04      64    1   28        -0.3881628518E-04      0.4305887917E-03
          0                55           1            43    1    37      -0.4153144958E-04      64    1   28        -0.3814903340E-04      0.4149460171E-03
          0                56           1            47    1    37      -0.3958085883E-04      64    1   28        -0.3629156998E-04      0.4003664271E-03
          0                57           1            43    1    37      -0.3858831231E-04      64    1   28        -0.3558967182E-04      0.3857468798E-03
          0                58           1            47    1    37      -0.3675082874E-04      64    1   28        -0.3390291704E-04      0.3722262937E-03
          0                59           1            43    1    37      -0.3585028773E-04      64    1   28        -0.3318570256E-04      0.3585761299E-03
          0                60           1            47    1    37      -0.3412768368E-04      64    1   28        -0.3164891359E-04      0.3460304535E-03
                                                   Max.-Head-Change                         Max.-Flux-Residual
  Residual-Control   Outer-Iter.   Inner-Iter.     Column Row Layer    Maximum-Head-Change  Column Row Layer    Maximum-Flux-Residual          L2-NORM 
          0                61           1            43    1    37      -0.3330419307E-04      64    1   28        -0.3093067812E-04      0.3332952758E-03
          0                62           1            47    1    37      -0.3169493842E-04      64    1   28        -0.2952655254E-04      0.3216495031E-03
          0                63           1            50    1    36      -0.3097372577E-04      64    1   28        -0.2881778155E-04      0.3097755805E-03
          0                64           1            47    1    37      -0.2943786958E-04      64    1   28        -0.2753173538E-04      0.2989619770E-03
          0                65           1            50    1    36      -0.2880625609E-04      64    1   28        -0.2684001896E-04      0.2878970389E-03
          0                66           1            47    1    37      -0.2734317519E-04      64    1   28        -0.2565964314E-04      0.2778539302E-03
          0                67           1            50    1    36      -0.2678622839E-04      64    1   28        -0.2499035668E-04      0.2675476316E-03
          0                68           1            47    1    37      -0.2539874277E-04      64    1   28        -0.2390500356E-04      0.2582185527E-03
          0                69           1            50    1    36      -0.2490437618E-04      64    1   28        -0.2326182192E-04      0.2486227329E-03
          0                70           1            47    1    37      -0.2359348371E-04      64    1   28        -0.2226228349E-04      0.2399557945E-03
                                                   Max.-Head-Change                         Max.-Flux-Residual
  Residual-Control   Outer-Iter.   Inner-Iter.     Column Row Layer    Maximum-Head-Change  Column Row Layer    Maximum-Flux-Residual          L2-NORM 
          0                71           1            50    1    36      -0.2315186284E-04      64    1   28        -0.2164757518E-04      0.2310246094E-03
          0                72           1            47    1    37      -0.2191720855E-04      64    1   28        -0.2072583146E-04      0.2229720006E-03
          0                73           1            50    1    36      -0.2152030046E-04      64    1   28        -0.2014096410E-04      0.2146619752E-03
          0                74           1            47    1    37      -0.2036053215E-04      64    1   28        -0.1928998125E-04      0.2071795584E-03
          0                75           1            50    1    36      -0.2000175200E-04      64    1   28        -0.1873556008E-04      0.1994495864E-03
          0                76           1            47    1    37      -0.1891479438E-04      64    1   28        -0.1794913118E-04      0.1924965564E-03
          0                77           1            50    1    36      -0.1858872737E-04      64    1   28        -0.1742518535E-04      0.1853078676E-03
          0                78           1            47    1    37      -0.1757199331E-04      64    1   28        -0.1669779988E-04      0.1788464577E-03
          0                79           1            50    1    36      -0.1727417233E-04      64    1   28        -0.1620392908E-04      0.1721625603E-03
          0                80           1            47    1    37      -0.1632472681E-04      64    1   28        -0.1553066855E-04      0.1661577850E-03
                                                   Max.-Head-Change                         Max.-Flux-Residual
  Residual-Control   Outer-Iter.   Inner-Iter.     Column Row Layer    Maximum-Head-Change  Column Row Layer    Maximum-Flux-Residual          L2-NORM 
          0                81           1            50    1    36      -0.1605145611E-04      64    1   28        -0.1506615783E-04      0.1599443921E-03
          0                82           1            47    1    37      -0.1516614192E-04      64    1   28        -0.1444261034E-04      0.1543638205E-03
          0                83           1            50    1    36      -0.1491435329E-04      64    1   28        -0.1400651928E-04      0.1485887644E-03
          0                84           1            47    1    37      -0.1408989162E-04      64    1   28        -0.1342870974E-04      0.1434023177E-03
          0                85           1            50    1    36      -0.1385702629E-04      64    1   28        -0.1301994288E-04      0.1380354586E-03
          0                86           1            47    1    37      -0.1309009420E-04      64    1   28        -0.1248427458E-04      0.1332152261E-03
          0                87           1            50    1    36      -0.1287400780E-04      64    1   28        -0.1210163592E-04      0.1282283569E-03
          0                88           1            47    1    37      -0.1216129337E-04      64    1   28        -0.1160484337E-04      0.1237484298E-03
          0                89           1            50    1    36      -0.1196018499E-04      64    1   28        -0.1124707768E-04      0.1191151783E-03
          0                90           1            47    1    37      -0.1129842961E-04      64    1   28        -0.1078618706E-04      0.1149515009E-03
                                                   Max.-Head-Change                         Max.-Flux-Residual
  Residual-Control   Outer-Iter.   Inner-Iter.     Column Row Layer    Maximum-Head-Change  Column Row Layer    Maximum-Flux-Residual          L2-NORM 
          0                91           1            50    1    36      -0.1111077617E-04      64    1   28        -0.1045201176E-04      0.1106472298E-03
          0                92           1            47    1    37      -0.1049680927E-04      64    1   28        -0.1002430716E-04      0.1067774613E-03
          0                93           1            50    1    36      -0.1032131378E-04      64    1   28        -0.9712437503E-05      0.1027791727E-03

    ------------------------------------------------
       NWT REQUIRED           93 OUTER ITERATIONS 
       AND A TOTAL OF        119 INNER ITERATIONS.
    ------------------------------------------------

 OUTPUT CONTROL FOR STRESS PERIOD    2   TIME STEP    4
    PRINT BUDGET
    SAVE HEAD FOR ALL LAYERS
    SAVE DRAWDOWN FOR ALL LAYERS
    SAVE BUDGET
 UBDSV1 SAVING "         STORAGE" ON UNIT  40 AT TIME STEP  4, STRESS PERIOD   2
 UBDSV2 SAVING "   CONSTANT HEAD" ON UNIT  40 AT TIME STEP  4, STRESS PERIOD   2
 UBDSV1 SAVING "FLOW RIGHT FACE " ON UNIT  40 AT TIME STEP  4, STRESS PERIOD   2
 UBDSV1 SAVING "FLOW LOWER FACE " ON UNIT  40 AT TIME STEP  4, STRESS PERIOD   2
 UBDSV4 SAVING "          DRAINS" ON UNIT  40 AT TIME STEP  4, STRESS PERIOD   2
 UBDSV4 SAVING " HEAD DEP BOUNDS" ON UNIT  40 AT TIME STEP  4, STRESS PERIOD   2

 SAVING SATURATED THICKNESS AND FLOW TERMS ON UNIT  333 FOR MT3DMS
 BY THE LINK-MT3DMS PACKAGE V7 AT TIME STEP    4, STRESS PERIOD    2


 HEAD WILL BE SAVED ON UNIT    2 AT END OF TIME STEP    4, STRESS PERIOD    2

 DRAWDOWN WILL BE SAVED ON UNIT   13 AT END OF TIME STEP    4, STRESS PERIOD    2
1
  VOLUMETRIC BUDGET FOR ENTIRE MODEL AT END OF TIME STEP    4, STRESS PERIOD   2
  ------------------------------------------------------------------------------

     CUMULATIVE VOLUMES      L**3       RATES FOR THIS TIME STEP      L**3/T
     ------------------                 ------------------------

           IN:                                      IN:
           ---                                      ---
             STORAGE     =          62.9416               STORAGE     =           3.3665
       CONSTANT HEAD     =           0.0000         CONSTANT HEAD     =           0.0000
              DRAINS     =           0.0000                DRAINS     =           0.0000
     HEAD DEP BOUNDS     =         361.2543       HEAD DEP BOUNDS     =           7.7079

                TOTAL IN =         424.1959                  TOTAL IN =          11.0744

          OUT:                                     OUT:
          ----                                     ----
             STORAGE     =       1.7555E-08               STORAGE     =           0.0000
       CONSTANT HEAD     =           0.0000         CONSTANT HEAD     =           0.0000
              DRAINS     =         411.3951                DRAINS     =          11.0766
     HEAD DEP BOUNDS     =          12.8346       HEAD DEP BOUNDS     =           0.0000

               TOTAL OUT =         424.2297                 TOTAL OUT =          11.0766

                IN - OUT =      -3.3813E-02                  IN - OUT =      -2.1706E-03

     PERCENT DISCREPANCY =          -0.01         PERCENT DISCREPANCY =          -0.02






         TIME SUMMARY AT END OF TIME STEP    4 IN STRESS PERIOD    2
                    SECONDS     MINUTES      HOURS       DAYS        YEARS
                    -----------------------------------------------------------
   TIME STEP LENGTH  86400.      1440.0      24.000      1.0000     2.73785E-03
 STRESS PERIOD TIME 3.45600E+05  5760.0      96.000      4.0000     1.09514E-02
         TOTAL TIME 1.20960E+06  20160.      336.00      14.000     3.83299E-02
1
 
 SOLVING FOR HEAD 
                                                   Max.-Head-Change                         Max.-Flux-Residual
  Residual-Control   Outer-Iter.   Inner-Iter.     Column Row Layer    Maximum-Head-Change  Column Row Layer    Maximum-Flux-Residual          L2-NORM 
          0                 1          16            57    1    19      -0.4427961376E+00      47    1   23        -0.6196077186E-01      0.3519029384E+00
          0                 2           6            44    1    13      -0.5849107411E-01      65    1   27        -0.3647870169E+00      0.1104803490E+01
          0                 3           2            84    1    32      -0.4541097072E-02      84    1   32        -0.1467651481E-01      0.2295119380E-01
          0                 4           1            77    1    37      -0.3934030265E-03      71    1   31        -0.7856023702E-03      0.5741675943E-02
          0                 5           1            63    1    26      -0.8268032998E-03      71    1   31        -0.5188060832E-03      0.5070019525E-02
          0                 6           1            65    1    26      -0.4098832904E-03      71    1   31        -0.6640810772E-03      0.5210699336E-02
          0                 7           1            63    1    25      -0.5969924022E-03      71    1   31        -0.4760670263E-03      0.4611490931E-02
          0                 8           1            65    1    26      -0.3985323769E-03      71    1   31        -0.5327106604E-03      0.4578434611E-02
          0                 9           1            63    1    25      -0.4836403670E-03      71    1   31        -0.4319775569E-03      0.4249782544E-02
          0                10           1            63    1    26      -0.3940834980E-03      71    1   31        -0.4520265975E-03      0.4153133368E-02
                                                   Max.-Head-Change                         Max.-Flux-Residual
  Residual-Control   Outer-Iter.   Inner-Iter.     Column Row Layer    Maximum-Head-Change  Column Row Layer    Maximum-Flux-Residual          L2-NORM 
          0                11           1            63    1    25      -0.4182971407E-03      71    1   31        -0.3974768402E-03      0.3942439140E-02
          0                12           1            55    1    25      -0.3830210999E-03      71    1   31        -0.3977228573E-03      0.3814302751E-02
          0                13           1            63    1    25      -0.3741815466E-03      71    1   31        -0.3657341564E-03      0.3657370926E-02
          0                14           1            55    1    25      -0.3644708925E-03      71    1   31        -0.3564161339E-03      0.3519692546E-02
          0                15           1            63    1    25      -0.3400404616E-03      71    1   31        -0.3364425612E-03      0.3390781017E-02
          0                16           1            55    1    25      -0.3425935564E-03      71    1   31        -0.3225841743E-03      0.3254291935E-02
          0                17           1            63    1    25      -0.3114115628E-03      71    1   31        -0.3096729447E-03      0.3142372091E-02
          0                18           1            55    1    25      -0.3198903564E-03      71    1   31        -0.2937096202E-03      0.3011850674E-02
          0                19           1            63    1    25      -0.2863709489E-03      71    1   31        -0.2853311337E-03      0.2911764694E-02
          0                20           1            55    1    25      -0.2976226064E-03      61    1   29        -0.2701888872E-03      0.2789041599E-02
                                                   Max.-Head-Change                         Max.-Flux-Residual
  Residual-Control   Outer-Iter.   Inner-Iter.     Column Row Layer    Maximum-Head-Change  Column Row Layer    Maximum-Flux-Residual          L2-NORM 
          0                21           1            63    1    25      -0.2639763945E-03      71    1   31        -0.2632049176E-03      0.2698123385E-02
          0                22           1            55    1    25      -0.2763703367E-03      61    1   29        -0.2495747973E-03      0.2583661864E-02
          0                23           1            63    1    25      -0.2437031389E-03      61    1   29        -0.2430918029E-03      0.2500374225E-02
          0                24           1            55    1    25      -0.2563682878E-03      61    1   29        -0.2306650113E-03      0.2394032244E-02
          0                25           1            63    1    25      -0.2252220297E-03      61    1   29        -0.2248918985E-03      0.2317381001E-02
          0                26           1            55    1    25      -0.2376814292E-03      61    1   29        -0.2132747508E-03      0.2218765573E-02
          0                27           1            55    1    19      -0.2083745417E-03      61    1   29        -0.2080553152E-03      0.2148034306E-02
          0                28           1            55    1    25      -0.2202929409E-03      61    1   29        -0.1972566346E-03      0.2056663373E-02
          0                29           1            55    1    19      -0.1931785930E-03      61    1   29        -0.1924975051E-03      0.1991288457E-02
          0                30           1            55    1    25      -0.2041479583E-03      61    1   29        -0.1824870044E-03      0.1906663482E-02
                                                   Max.-Head-Change                         Max.-Flux-Residual
  Residual-Control   Outer-Iter.   Inner-Iter.     Column Row Layer    Maximum-Head-Change  Column Row Layer    Maximum-Flux-Residual          L2-NORM 
          0                31           1            55    1    19      -0.1791169588E-03      61    1   29        -0.1781271470E-03      0.1846173202E-02
          0                32           1            55    1    25      -0.1891753986E-03      61    1   29        -0.1688586094E-03      0.1767810509E-02
          0                33           1            55    1    19      -0.1661048051E-03      71    1   31        -0.1649450033E-03      0.1711794334E-02
          0                34           1            55    1    25      -0.1752988855E-03      61    1   29        -0.1562764391E-03      0.1639237468E-02
          0                35           1            55    1    19      -0.1540634783E-03      71    1   31        -0.1528243277E-03      0.1587329862E-02
          0                36           1            55    1    25      -0.1624422045E-03      61    1   29        -0.1446552006E-03      0.1520153314E-02
          0                37           1            55    1    19      -0.1429196542E-03      71    1   31        -0.1416216381E-03      0.1472024657E-02
          0                38           1            55    1    25      -0.1505319589E-03      61    1   29        -0.1339176846E-03      0.1409833798E-02
          0                39           1            55    1    19      -0.1326049996E-03      71    1   31        -0.1312580904E-03      0.1365184851E-02
          0                40           1            55    1    25      -0.1394987821E-03      61    1   29        -0.1239936353E-03      0.1307614319E-02
                                                   Max.-Head-Change                         Max.-Flux-Residual
  Residual-Control   Outer-Iter.   Inner-Iter.     Column Row Layer    Maximum-Head-Change  Column Row Layer    Maximum-Flux-Residual          L2-NORM 
          0                41           1            55    1    19      -0.1230559862E-03      71    1   31        -0.1216641968E-03      0.1266172469E-02
          0                42           1            55    1    25      -0.1292777981E-03      61    1   29        -0.1148189122E-03      0.1212884046E-02
          0                43           1            55    1    19      -0.1142137312E-03      71    1   31        -0.1127781535E-03      0.1174400482E-02
          0                44           1            55    1    25      -0.1198086826E-03      61    1   29        -0.1063348304E-03      0.1125080912E-02
          0                45           1            55    1    25      -0.1060238332E-03      71    1   31        -0.1045445396E-03      0.1089328300E-02
          0                46           1            55    1    25      -0.1110355294E-03      61    1   29        -0.9848761692E-04      0.1043687252E-02
          0                47           1            55    1    25      -0.9843607991E-04      71    1   31        -0.9691330604E-04      0.1010457713E-02
          0                48           1            55    1    25      -0.1029066199E-03      61    1   29        -0.9122794486E-04      0.9682259228E-03
          0                49           1            55    1    25      -0.9140422227E-04      71    1   31        -0.8983898303E-04      0.9373292359E-03
          0                50           1            55    1    25      -0.9537414718E-04      61    1   29        -0.8451052653E-04      0.8982568452E-03
                                                   Max.-Head-Change                         Max.-Flux-Residual
  Residual-Control   Outer-Iter.   Inner-Iter.     Column Row Layer    Maximum-Head-Change  Column Row Layer    Maximum-Flux-Residual          L2-NORM 
          0                51           1            51    1    39      -0.8488786232E-04      71    1   31        -0.8328005605E-04      0.8695188006E-03
          0                52           1            55    1    25      -0.8839393422E-04      61    1   29        -0.7829375249E-04      0.8333738793E-03
          0                53           1            51    1    39      -0.7887944658E-04      71    1   31        -0.7719846921E-04      0.8066347868E-03
          0                54           1            55    1    25      -0.8192515866E-04      61    1   29        -0.7253936684E-04      0.7732020019E-03
          0                55           1            51    1    39      -0.7330394333E-04      71    1   31        -0.7155922563E-04      0.7483153355E-03
          0                56           1            55    1    25      -0.7593008732E-04      61    1   29        -0.6721217622E-04      0.7173947505E-03
          0                57           1            51    1    39      -0.6812883497E-04      71    1   31        -0.6633005954E-04      0.6942259142E-03
          0                58           1            55    1    25      -0.7037383567E-04      61    1   29        -0.6227978497E-04      0.6656318989E-03
          0                59           1            51    1    39      -0.6332424320E-04      71    1   31        -0.6148116674E-04      0.6440571174E-03
          0                60           1            55    1    25      -0.6522413842E-04      61    1   29        -0.5771235695E-04      0.6176173451E-03
                                                   Max.-Head-Change                         Max.-Flux-Residual
  Residual-Control   Outer-Iter.   Inner-Iter.     Column Row Layer    Maximum-Head-Change  Column Row Layer    Maximum-Flux-Residual          L2-NORM 
          0                61           1            51    1    39      -0.5886269363E-04      71    1   31        -0.5698497476E-04      0.5975226610E-03
          0                62           1            55    1    25      -0.6045114529E-04      61    1   29        -0.5348239898E-04      0.5730771896E-03
          0                63           1            51    1    39      -0.5471890258E-04      71    1   31        -0.5281594916E-04      0.5543575635E-03
          0                64           1            55    1    25      -0.5602723105E-04      61    1   29        -0.4956456414E-04      0.5317579795E-03
          0                65           1            51    1    39      -0.5086958231E-04      71    1   31        -0.4895042252E-04      0.5143164838E-03
          0                66           1            55    1    25      -0.5192682003E-04      61    1   29        -0.4593547331E-04      0.4934251083E-03
          0                67           1            52    1    40      -0.4729573217E-04      71    1   31        -0.4536644593E-04      0.4771722036E-03
          0                68           1            55    1    25      -0.4812622833E-04      61    1   29        -0.4257355309E-04      0.4578613543E-03
          0                69           1            52    1    40      -0.4397639535E-04      71    1   31        -0.4204365533E-04      0.4427142384E-03
          0                70           1            55    1    25      -0.4460352154E-04      61    1   29        -0.3945888818E-04      0.4248655386E-03
                                                   Max.-Head-Change                         Max.-Flux-Residual
  Residual-Control   Outer-Iter.   Inner-Iter.     Column Row Layer    Maximum-Head-Change  Column Row Layer    Maximum-Flux-Residual          L2-NORM 
          0                71           1            52    1    40      -0.4089122334E-04      71    1   31        -0.3896315364E-04      0.4107475671E-03
          0                72           1            55    1    25      -0.4133837859E-04      61    1   29        -0.3657308682E-04      0.3942512985E-03
          0                73           1            52    1    40      -0.3802341484E-04      71    1   31        -0.3610740021E-04      0.3810914620E-03
          0                74           1            55    1    25      -0.3831197164E-04      61    1   29        -0.3389915838E-04      0.3658459619E-03
          0                75           1            52    1    40      -0.3535742992E-04      71    1   31        -0.3346011394E-04      0.3535784161E-03
          0                76           1            55    1    25      -0.3550685452E-04      61    1   29        -0.3142140150E-04      0.3394895115E-03
          0                77           1            52    1    40      -0.3287888617E-04      71    1   31        -0.3100618136E-04      0.3280531554E-03
          0                78           1            55    1    25      -0.3290685756E-04      61    1   29        -0.2912530186E-04      0.3150336340E-03
          0                79           1            52    1    40      -0.3057446526E-04      71    1   31        -0.2873157345E-04      0.3043717285E-03
          0                80           1            55    1    25      -0.3049699323E-04      61    1   29        -0.2699743928E-04      0.2923408450E-03
                                                   Max.-Head-Change                         Max.-Flux-Residual
  Residual-Control   Outer-Iter.   Inner-Iter.     Column Row Layer    Maximum-Head-Change  Column Row Layer    Maximum-Flux-Residual          L2-NORM 
          0                81           1            52    1    40      -0.2843182481E-04      71    1   31        -0.2662326821E-04      0.2824006669E-03
          0                82           1            55    1    25      -0.2826337172E-04      61    1   29        -0.2502540127E-04      0.2712836824E-03
          0                83           1            52    1    40      -0.2643952021E-04      71    1   31        -0.2466917960E-04      0.2620162123E-03
          0                84           1            55    1    25      -0.2619311691E-04      61    1   29        -0.2319770550E-04      0.2517439608E-03
          0                85           1            52    1    40      -0.2458693893E-04      71    1   31        -0.2285809073E-04      0.2431036011E-03
          0                86           1            55    1    25      -0.2427429235E-04      61    1   29        -0.2150372731E-04      0.2336120882E-03
          0                87           1            52    1    40      -0.2286423148E-04      71    1   31        -0.2117959222E-04      0.2255564023E-03
          0                88           1            55    1    25      -0.2249583418E-04      61    1   29        -0.1993363418E-04      0.2167864300E-03
          0                89           1            52    1    40      -0.2126225614E-04      71    1   31        -0.1962402541E-04      0.2092759095E-03
          0                90           1            55    1    25      -0.2084748484E-04      61    1   29        -0.1847832507E-04      0.2011727253E-03
                                                   Max.-Head-Change                         Max.-Flux-Residual
  Residual-Control   Outer-Iter.   Inner-Iter.     Column Row Layer    Maximum-Head-Change  Column Row Layer    Maximum-Flux-Residual          L2-NORM 
          0                91           1            52    1    40      -0.1977252370E-04      71    1   31        -0.1818242859E-04      0.1941705723E-03
          0                92           1            55    1    39      -0.1932809289E-04      61    1   29        -0.1712937444E-04      0.1866835450E-03
          0                93           1            52    1    40      -0.1838715016E-04      71    1   31        -0.1684648780E-04      0.1801554774E-03
          0                94           1            55    1    39      -0.1792142256E-04      61    1   29        -0.1587898123E-04      0.1732377919E-03
          0                95           1            52    1    40      -0.1709881205E-04      71    1   31        -0.1560849064E-04      0.1671518618E-03
          0                96           1            55    1    39      -0.1661681149E-04      61    1   29        -0.1471992127E-04      0.1607602386E-03
          0                97           1            52    1    40      -0.1590070268E-04      71    1   31        -0.1446128319E-04      0.1550866652E-03
          0                98           1            55    1    39      -0.1540688534E-04      61    1   29        -0.1364550423E-04      0.1491810973E-03
          0                99           1            52    1    40      -0.1478649845E-04      71    1   31        -0.1339823058E-04      0.1438921168E-03
          0               100           1            55    1    39      -0.1428479929E-04      61    1   29        -0.1264953352E-04      0.1384356265E-03
                                                   Max.-Head-Change                         Max.-Flux-Residual
  Residual-Control   Outer-Iter.   Inner-Iter.     Column Row Layer    Maximum-Head-Change  Column Row Layer    Maximum-Flux-Residual          L2-NORM 
          0               101           1            52    1    40      -0.1375032056E-04      71    1   31        -0.1241317938E-04      0.1335053482E-03
          0               102           1            55    1    39      -0.1324419956E-04      61    1   29        -0.1172626872E-04      0.1284637613E-03
          0               103           1            52    1    40      -0.1278670555E-04      71    1   31        -0.1150042318E-04      0.1238680391E-03
          0               104           1            55    1    39      -0.1227918995E-04      61    1   29        -0.1087039252E-04      0.1192097749E-03
          0               105           1            52    1    40      -0.1189057270E-04      71    1   31        -0.1065467070E-04      0.1149260860E-03
          0               106           1            55    1    39      -0.1138429889E-04      61    1   29        -0.1007697793E-04      0.1106219633E-03
          0               107           1            52    1    40      -0.1105719841E-04      71    1   31        -0.9871015934E-05      0.1066292975E-03
          0               108           1            55    1    39      -0.1055444865E-04      61    1   29        -0.9341460157E-05      0.1026523528E-03

    ------------------------------------------------
       NWT REQUIRED          108 OUTER ITERATIONS 
       AND A TOTAL OF        129 INNER ITERATIONS.
    ------------------------------------------------

 OUTPUT CONTROL FOR STRESS PERIOD    2   TIME STEP    5
    PRINT BUDGET
    SAVE HEAD FOR ALL LAYERS
    SAVE DRAWDOWN FOR ALL LAYERS
    SAVE BUDGET
 UBDSV1 SAVING "         STORAGE" ON UNIT  40 AT TIME STEP  5, STRESS PERIOD   2
 UBDSV2 SAVING "   CONSTANT HEAD" ON UNIT  40 AT TIME STEP  5, STRESS PERIOD   2
 UBDSV1 SAVING "FLOW RIGHT FACE " ON UNIT  40 AT TIME STEP  5, STRESS PERIOD   2
 UBDSV1 SAVING "FLOW LOWER FACE " ON UNIT  40 AT TIME STEP  5, STRESS PERIOD   2
 UBDSV4 SAVING "          DRAINS" ON UNIT  40 AT TIME STEP  5, STRESS PERIOD   2
 UBDSV4 SAVING " HEAD DEP BOUNDS" ON UNIT  40 AT TIME STEP  5, STRESS PERIOD   2

 SAVING SATURATED THICKNESS AND FLOW TERMS ON UNIT  333 FOR MT3DMS
 BY THE LINK-MT3DMS PACKAGE V7 AT TIME STEP    5, STRESS PERIOD    2


 HEAD WILL BE SAVED ON UNIT    2 AT END OF TIME STEP    5, STRESS PERIOD    2

 DRAWDOWN WILL BE SAVED ON UNIT   13 AT END OF TIME STEP    5, STRESS PERIOD    2
1
  VOLUMETRIC BUDGET FOR ENTIRE MODEL AT END OF TIME STEP    5, STRESS PERIOD   2
  ------------------------------------------------------------------------------

     CUMULATIVE VOLUMES      L**3       RATES FOR THIS TIME STEP      L**3/T
     ------------------                 ------------------------

           IN:                                      IN:
           ---                                      ---
             STORAGE     =          64.7510               STORAGE     =           1.8094
       CONSTANT HEAD     =           0.0000         CONSTANT HEAD     =           0.0000
              DRAINS     =           0.0000                DRAINS     =           0.0000
     HEAD DEP BOUNDS     =         369.7562       HEAD DEP BOUNDS     =           8.5019

                TOTAL IN =         434.5071                  TOTAL IN =          10.3113

          OUT:                                     OUT:
          ----                                     ----
             STORAGE     =       1.7555E-08               STORAGE     =           0.0000
       CONSTANT HEAD     =           0.0000         CONSTANT HEAD     =           0.0000
              DRAINS     =         421.7085                DRAINS     =          10.3135
     HEAD DEP BOUNDS     =          12.8346       HEAD DEP BOUNDS     =           0.0000

               TOTAL OUT =         434.5432                 TOTAL OUT =          10.3135

                IN - OUT =      -3.6011E-02                  IN - OUT =      -2.1830E-03

     PERCENT DISCREPANCY =          -0.01         PERCENT DISCREPANCY =          -0.02






         TIME SUMMARY AT END OF TIME STEP    5 IN STRESS PERIOD    2
                    SECONDS     MINUTES      HOURS       DAYS        YEARS
                    -----------------------------------------------------------
   TIME STEP LENGTH  86400.      1440.0      24.000      1.0000     2.73785E-03
 STRESS PERIOD TIME 4.32000E+05  7200.0      120.00      5.0000     1.36893E-02
         TOTAL TIME 1.29600E+06  21600.      360.00      15.000     4.10678E-02
1
 
 SOLVING FOR HEAD 
                                                   Max.-Head-Change                         Max.-Flux-Residual
  Residual-Control   Outer-Iter.   Inner-Iter.     Column Row Layer    Maximum-Head-Change  Column Row Layer    Maximum-Flux-Residual          L2-NORM 
          0                 1          16            63    1    22      -0.2523306834E+00      55    1   25        -0.3433931903E-01      0.1998194541E+00
          0                 2           6            42    1    12      -0.4186431026E-01      63    1   27        -0.1529934781E+00      0.5740037339E+00
          0                 3           1            80    1    30       0.7204517527E-03      63    1   27        -0.4265701270E-02      0.1096796620E-01
          0                 4           1            35    1    39      -0.3951669666E-03      39    1   25        -0.2574065147E-03      0.2852425646E-02
          0                 5           1            42    1    12      -0.3067128789E-03      53    1   27        -0.2705365413E-03      0.2762167149E-02
          0                 6           1            38    1    40      -0.3007918567E-03      39    1   25        -0.2543555626E-03      0.2635016990E-02
          0                 7           1            42    1    11      -0.3129317031E-03      42    1   26        -0.2355659627E-03      0.2523356390E-02
          0                 8           1            38    1    40      -0.2237313722E-03      39    1   25        -0.2441824723E-03      0.2444053712E-02
          0                 9           1            42    1    11      -0.3252814814E-03      42    1   26        -0.2040015532E-03      0.2315892870E-02
          0                10           1            40    1    28      -0.1893868055E-03      39    1   25        -0.2240634353E-03      0.2279164387E-02
                                                   Max.-Head-Change                         Max.-Flux-Residual
  Residual-Control   Outer-Iter.   Inner-Iter.     Column Row Layer    Maximum-Head-Change  Column Row Layer    Maximum-Flux-Residual          L2-NORM 
          0                11           1            42    1    22      -0.3142732209E-03      42    1   26        -0.1792702747E-03      0.2132132805E-02
          0                12           1            40    1    28      -0.1700673456E-03      39    1   25        -0.1997763564E-03      0.2113955049E-02
          0                13           1            51    1    16      -0.2894727764E-03      42    1   26        -0.1597126337E-03      0.1963849963E-02
          0                14           1            40    1    28      -0.1555359611E-03      39    1   25        -0.1776661000E-03      0.1950541156E-02
          0                15           1            51    1    23      -0.2644070814E-03      53    1   27        -0.1453868062E-03      0.1810294552E-02
          0                16           1            45    1    35      -0.1442607141E-03      63    1   33        -0.1656485459E-03      0.1797639777E-02
          0                17           1            51    1    23      -0.2409708083E-03      53    1   27        -0.1342510535E-03      0.1670253689E-02
          0                18           1            45    1    35      -0.1342146470E-03      63    1   33        -0.1552282005E-03      0.1657523041E-02
          0                19           1            51    1    24      -0.2198888051E-03      63    1   33        -0.1249246489E-03      0.1542197436E-02
          0                20           1            45    1    35      -0.1248421660E-03      63    1   33        -0.1451016763E-03      0.1529370187E-02
                                                   Max.-Head-Change                         Max.-Flux-Residual
  Residual-Control   Outer-Iter.   Inner-Iter.     Column Row Layer    Maximum-Head-Change  Column Row Layer    Maximum-Flux-Residual          L2-NORM 
          0                21           1            51    1    24      -0.2009598123E-03      63    1   33        -0.1175654565E-03      0.1424778513E-02
          0                22           1            45    1    35      -0.1160948285E-03      63    1   33        -0.1353886748E-03      0.1411945249E-02
          0                23           1            51    1    24      -0.1838972788E-03      63    1   33        -0.1103660891E-03      0.1316882603E-02
          0                24           1            51    1    17      -0.1081842309E-03      63    1   33        -0.1261362271E-03      0.1304134533E-02
          0                25           1            51    1    24      -0.1684541122E-03      63    1   33        -0.1033942277E-03      0.1217581154E-02
          0                26           1            51    1    17      -0.1009460566E-03      63    1   33        -0.1173660214E-03      0.1204992164E-02
          0                27           1            51    1    24      -0.1544300797E-03      63    1   33        -0.9669628662E-04      0.1126084639E-02
          0                28           1            51    1    17      -0.9415277752E-04      63    1   33        -0.1090860878E-03      0.1113711423E-02
          0                29           1            51    1    24      -0.1416619994E-03      63    1   33        -0.9030219297E-04      0.1041708745E-02
          0                30           1            51    1    17      -0.8778622064E-04      63    1   33        -0.1012950622E-03      0.1029593818E-02
                                                   Max.-Head-Change                         Max.-Flux-Residual
  Residual-Control   Outer-Iter.   Inner-Iter.     Column Row Layer    Maximum-Head-Change  Column Row Layer    Maximum-Flux-Residual          L2-NORM 
          0                31           1            51    1    24      -0.1300144382E-03      63    1   33        -0.8422936102E-04      0.9638510155E-03
          0                32           1            51    1    17      -0.8182714132E-04      63    1   33        -0.9398470166E-04      0.9520256647E-03
          0                33           1            51    1    24      -0.1193730144E-03      63    1   33        -0.7848576547E-04      0.8919745202E-03
          0                34           1            51    1    17      -0.7625557527E-04      63    1   33        -0.8714177469E-04      0.8804613240E-03
          0                35           1            51    1    24      -0.1096396991E-03      63    1   33        -0.7307229737E-04      0.8255961849E-03
          0                36           1            51    1    17      -0.7105116447E-04      63    1   33        -0.8074953806E-04      0.8144110890E-03
          0                37           1            51    1    24      -0.1007294439E-03      63    1   33        -0.6798458031E-04      0.7642782360E-03
          0                38           1            51    1    17      -0.6619344550E-04      63    1   33        -0.7478888514E-04      0.7534322428E-03
          0                39           1            51    1    24      -0.9256766623E-04      63    1   33        -0.6321438394E-04      0.7076217841E-03
          0                40           1            51    1    17      -0.6166210606E-04      63    1   33        -0.6923921899E-04      0.6971222878E-03
                                                   Max.-Head-Change                         Max.-Flux-Residual
  Residual-Control   Outer-Iter.   Inner-Iter.     Column Row Layer    Maximum-Head-Change  Column Row Layer    Maximum-Flux-Residual          L2-NORM 
          0                41           1            51    1    24      -0.8508831993E-04      63    1   33        -0.5875072887E-04      0.6552619043E-03
          0                42           1            51    1    17      -0.5743721078E-04      63    1   33        -0.6407911047E-04      0.6451137009E-03
          0                43           1            51    1    24      -0.7823240739E-04      63    1   33        -0.5458075597E-04      0.6068637897E-03
          0                44           1            51    1    17      -0.5349938272E-04      63    1   33        -0.5928679428E-04      0.5970697987E-03
          0                45           1            51    1    24      -0.7194681639E-04      63    1   33        -0.5069040509E-04      0.5621196631E-03
          0                46           1            51    1    17      -0.4982996120E-04      63    1   33        -0.5484054213E-04      0.5526814127E-03
          0                47           1            51    1    24      -0.6618340896E-04      63    1   33        -0.4706494809E-04      0.5207462483E-03
          0                48           1            51    1    17      -0.4641111353E-04      63    1   33        -0.5071894108E-04      0.5116641639E-03
          0                49           1            51    1    24      -0.6089833144E-04      63    1   33        -0.4368939889E-04      0.4824826412E-03
          0                50           1            51    1    17      -0.4322591512E-04      63    1   33        -0.4690110987E-04      0.4737561968E-03
                                                   Max.-Head-Change                         Max.-Flux-Residual
  Residual-Control   Outer-Iter.   Inner-Iter.     Column Row Layer    Maximum-Head-Change  Column Row Layer    Maximum-Flux-Residual          L2-NORM 
          0                51           1            51    1    24      -0.5605146759E-04      63    1   33        -0.4054882538E-04      0.4470884694E-03
          0                52           1            51    1    17      -0.4025840021E-04      63    1   33        -0.4336685546E-04      0.4387162440E-03
          0                53           1            51    1    24      -0.5160602281E-04      63    1   33        -0.3762858358E-04      0.4143422704E-03
          0                54           1            51    1    17      -0.3749358425E-04      63    1   33        -0.4009679139E-04      0.4063219488E-03
          0                55           1            51    1    24      -0.4752819454E-04      63    1   33        -0.3491448572E-04      0.3840400270E-03
          0                56           1            51    1    17      -0.3491745686E-04      63    1   33        -0.3707241984E-04      0.3763683761E-03
          0                57           1            51    1    24      -0.4378692095E-04      63    1   33        -0.3239291567E-04      0.3559938287E-03
          0                58           1            51    1    17      -0.3251696005E-04      63    1   33        -0.3427619060E-04      0.3486666776E-03
          0                59           1            51    1    24      -0.4035365764E-04      63    1   33        -0.3005090355E-04      0.3300306304E-03
          0                60           1            51    1    17      -0.3027995307E-04      63    1   33        -0.3169152890E-04      0.3230428607E-03
                                                   Max.-Head-Change                         Max.-Flux-Residual
  Residual-Control   Outer-Iter.   Inner-Iter.     Column Row Layer    Maximum-Head-Change  Column Row Layer    Maximum-Flux-Residual          L2-NORM 
          0                61           1            50    1    36      -0.3722388785E-04      63    1   33        -0.2787616825E-04      0.3059910994E-03
          0                62           1            51    1    17      -0.2819516472E-04      63    1   33        -0.2930284916E-04      0.2993366597E-03
          0                63           1            50    1    36      -0.3435069218E-04      63    1   33        -0.2585713509E-04      0.2837285381E-03
          0                64           1            51    1    17      -0.2625213854E-04      63    1   33        -0.2709554809E-04      0.2774004811E-03
          0                65           1            50    1    36      -0.3170652832E-04      63    1   33        -0.2398293384E-04      0.2631078797E-03
          0                66           1            51    1    17      -0.2444117675E-04      63    1   33        -0.2505598871E-04      0.2570984230E-03
          0                67           1            50    1    36      -0.2927273620E-04      63    1   33        -0.2224338485E-04      0.2440047507E-03
          0                68           1            51    1    17      -0.2275328224E-04      63    1   33        -0.2317146942E-04      0.2383053577E-03
          0                69           1            50    1    36      -0.2703212558E-04      63    1   33        -0.2062897545E-04      0.2263046026E-03
          0                70           1            51    1    17      -0.2118010638E-04      63    1   33        -0.2143018813E-04      0.2209060772E-03
                                                   Max.-Head-Change                         Max.-Flux-Residual
  Residual-Control   Outer-Iter.   Inner-Iter.     Column Row Layer    Maximum-Head-Change  Column Row Layer    Maximum-Flux-Residual          L2-NORM 
          0                71           1            50    1    36      -0.2496887720E-04      63    1   33        -0.1913083074E-04      0.2099019048E-03
          0                72           1            51    1    17      -0.1971389830E-04      63    1   33        -0.1982119738E-04      0.2047944944E-03
          0                73           1            50    1    36      -0.2306845911E-04      63    1   33        -0.1774068167E-04      0.1946994062E-03
          0                74           1            51    1    17      -0.1834745131E-04      63    1   33        -0.1833436013E-04      0.1898729074E-03
          0                75           1            50    1    36      -0.2131753542E-04      63    1   33        -0.1645082935E-04      0.1806074482E-03
          0                76           1            51    1    17      -0.1707406217E-04      63    1   33        -0.1696030060E-04      0.1760513166E-03
          0                77           1            50    1    36      -0.1970387913E-04      63    1   33        -0.1525411128E-04      0.1675433403E-03
          0                78           1            51    1    17      -0.1588748856E-04      63    1   33        -0.1569035601E-04      0.1632467927E-03
          0                79           1            50    1    36      -0.1821628775E-04      63    1   33        -0.1414386642E-04      0.1554307846E-03
          0                80           1            51    1    17      -0.1478191499E-04      63    1   33        -0.1451652807E-04      0.1513828989E-03
                                                   Max.-Head-Change                         Max.-Flux-Residual
  Residual-Control   Outer-Iter.   Inner-Iter.     Column Row Layer    Maximum-Head-Change  Column Row Layer    Maximum-Flux-Residual          L2-NORM 
          0                81           1            50    1    36      -0.1684449776E-04      63    1   33        -0.1311390326E-04      0.1441993520E-03
          0                82           1            51    1    17      -0.1375192085E-04      63    1   33        -0.1343143495E-04      0.1403891551E-03
          0                83           1            50    1    36      -0.1557911345E-04      63    1   33        -0.1215846802E-04      0.1337840042E-03
          0                84           1            51    1    17      -0.1279244582E-04      63    1   33        -0.1242826741E-04      0.1302005523E-03
          0                85           1            50    1    36      -0.1441153599E-04      63    1   33        -0.1127221358E-04      0.1241246543E-03
          0                86           1            51    1    17      -0.1189876486E-04      63    1   33        -0.1150074635E-04      0.1207571057E-03
          0                87           1            50    1    36      -0.1333389214E-04      63    1   33        -0.1045017197E-04      0.1151657683E-03
          0                88           1            51    1    17      -0.1106646855E-04      63    1   33        -0.1064308179E-04      0.1120034457E-03
          0                89           1            50    1    36      -0.1233897129E-04      63    1   33        -0.9687728493E-05      0.1068560005E-03
          0                90           1            51    1    17      -0.1029143684E-04      63    1   33        -0.9849934173E-05      0.1038884420E-03

    ------------------------------------------------
       NWT REQUIRED           90 OUTER ITERATIONS 
       AND A TOTAL OF        110 INNER ITERATIONS.
    ------------------------------------------------

 OUTPUT CONTROL FOR STRESS PERIOD    2   TIME STEP    6
    PRINT BUDGET
    SAVE HEAD FOR ALL LAYERS
    SAVE DRAWDOWN FOR ALL LAYERS
    SAVE BUDGET
 UBDSV1 SAVING "         STORAGE" ON UNIT  40 AT TIME STEP  6, STRESS PERIOD   2
 UBDSV2 SAVING "   CONSTANT HEAD" ON UNIT  40 AT TIME STEP  6, STRESS PERIOD   2
 UBDSV1 SAVING "FLOW RIGHT FACE " ON UNIT  40 AT TIME STEP  6, STRESS PERIOD   2
 UBDSV1 SAVING "FLOW LOWER FACE " ON UNIT  40 AT TIME STEP  6, STRESS PERIOD   2
 UBDSV4 SAVING "          DRAINS" ON UNIT  40 AT TIME STEP  6, STRESS PERIOD   2
 UBDSV4 SAVING " HEAD DEP BOUNDS" ON UNIT  40 AT TIME STEP  6, STRESS PERIOD   2

 SAVING SATURATED THICKNESS AND FLOW TERMS ON UNIT  333 FOR MT3DMS
 BY THE LINK-MT3DMS PACKAGE V7 AT TIME STEP    6, STRESS PERIOD    2


 HEAD WILL BE SAVED ON UNIT    2 AT END OF TIME STEP    6, STRESS PERIOD    2

 DRAWDOWN WILL BE SAVED ON UNIT   13 AT END OF TIME STEP    6, STRESS PERIOD    2
1
  VOLUMETRIC BUDGET FOR ENTIRE MODEL AT END OF TIME STEP    6, STRESS PERIOD   2
  ------------------------------------------------------------------------------

     CUMULATIVE VOLUMES      L**3       RATES FOR THIS TIME STEP      L**3/T
     ------------------                 ------------------------

           IN:                                      IN:
           ---                                      ---
             STORAGE     =          65.7357               STORAGE     =           0.9848
       CONSTANT HEAD     =           0.0000         CONSTANT HEAD     =           0.0000
              DRAINS     =           0.0000                DRAINS     =           0.0000
     HEAD DEP BOUNDS     =         378.6509       HEAD DEP BOUNDS     =           8.8948

                TOTAL IN =         444.3867                  TOTAL IN =           9.8795

          OUT:                                     OUT:
          ----                                     ----
             STORAGE     =       1.7557E-08               STORAGE     =       1.9003E-12
       CONSTANT HEAD     =           0.0000         CONSTANT HEAD     =           0.0000
              DRAINS     =         431.5903                DRAINS     =           9.8817
     HEAD DEP BOUNDS     =          12.8346       HEAD DEP BOUNDS     =           0.0000

               TOTAL OUT =         444.4249                 TOTAL OUT =           9.8817

                IN - OUT =      -3.8208E-02                  IN - OUT =      -2.2068E-03

     PERCENT DISCREPANCY =          -0.01         PERCENT DISCREPANCY =          -0.02






         TIME SUMMARY AT END OF TIME STEP    6 IN STRESS PERIOD    2
                    SECONDS     MINUTES      HOURS       DAYS        YEARS
                    -----------------------------------------------------------
   TIME STEP LENGTH  86400.      1440.0      24.000      1.0000     2.73785E-03
 STRESS PERIOD TIME 5.18400E+05  8640.0      144.00      6.0000     1.64271E-02
         TOTAL TIME 1.38240E+06  23040.      384.00      16.000     4.38056E-02
1
 
 SOLVING FOR HEAD 
                                                   Max.-Head-Change                         Max.-Flux-Residual
  Residual-Control   Outer-Iter.   Inner-Iter.     Column Row Layer    Maximum-Head-Change  Column Row Layer    Maximum-Flux-Residual          L2-NORM 
          0                 1          11            51    1    16      -0.1321441862E+00      65    1   27        -0.1991009929E-01      0.1112292530E+00
          0                 2           2            61    1    25      -0.1717613478E-01      50    1   25         0.8336393880E-01      0.1776304747E+00
          0                 3           1            61    1    26      -0.4320271761E-03      51    1   25        -0.1626138268E-02      0.4947457972E-02
          0                 4           1            27    1    21      -0.3848695813E-03      34    1   26        -0.3118128442E-03      0.3363626881E-02
          0                 5           1            37    1     9      -0.5426596598E-03      72    1   30        -0.2576076304E-03      0.3190987063E-02
          0                 6           1            41    1    23      -0.2155086496E-03      61    1   39        -0.3290352918E-03      0.3125011202E-02
          0                 7           1            41    1    11      -0.3966955856E-03      61    1   39        -0.2518334691E-03      0.2824072493E-02
          0                 8           1            41    1    23      -0.2451338519E-03      61    1   39        -0.3060069520E-03      0.2817460502E-02
          0                 9           1            53    1    17      -0.3140360700E-03      61    1   39        -0.2494615954E-03      0.2607667394E-02
          0                10           1            41    1    23      -0.2159520458E-03      61    1   39        -0.2682520368E-03      0.2548115133E-02
                                                   Max.-Head-Change                         Max.-Flux-Residual
  Residual-Control   Outer-Iter.   Inner-Iter.     Column Row Layer    Maximum-Head-Change  Column Row Layer    Maximum-Flux-Residual          L2-NORM 
          0                11           1            53    1    18      -0.2846244665E-03      61    1   39        -0.2301299423E-03      0.2398857596E-02
          0                12           1            41    1    11      -0.2040133592E-03      61    1   39        -0.2462404496E-03      0.2344988398E-02
          0                13           1            53    1    25      -0.2590850304E-03      61    1   39        -0.2159200428E-03      0.2219761262E-02
          0                14           1            46    1    40      -0.1919266396E-03      61    1   39        -0.2266233446E-03      0.2163392527E-02
          0                15           1            53    1    25      -0.2378120271E-03      61    1   39        -0.2015890613E-03      0.2055208527E-02
          0                16           1            46    1    40      -0.1808906505E-03      61    1   39        -0.2093339819E-03      0.1999681689E-02
          0                17           1            53    1    25      -0.2190406491E-03      61    1   39        -0.1878035567E-03      0.1903728608E-02
          0                18           1            46    1    40      -0.1696379655E-03      61    1   39        -0.1936621074E-03      0.1850222149E-02
          0                19           1            53    1    25      -0.2020828445E-03      61    1   39        -0.1747208302E-03      0.1763927929E-02
          0                20           1            46    1    40      -0.1585845291E-03      61    1   39        -0.1792915372E-03      0.1712979587E-02
                                                   Max.-Head-Change                         Max.-Flux-Residual
  Residual-Control   Outer-Iter.   Inner-Iter.     Column Row Layer    Maximum-Head-Change  Column Row Layer    Maximum-Flux-Residual          L2-NORM 
          0                21           1            53    1    25      -0.1865846608E-03      61    1   39        -0.1624141484E-03      0.1634749126E-02
          0                22           1            46    1    38      -0.1479705979E-03      61    1   39        -0.1660367773E-03      0.1586553364E-02
          0                23           1            53    1    25      -0.1723427324E-03      61    1   39        -0.1508971032E-03      0.1515293366E-02
          0                24           1            46    1    38      -0.1385795883E-03      61    1   39        -0.1537749426E-03      0.1473846350E-02
          0                25           1            53    1    18      -0.1543016519E-03      61    1   39        -0.1402932459E-03      0.1403214809E-02
          0                26           1            47    1    39      -0.1322397668E-03      61    1   39        -0.1413975259E-03      0.1359733531E-02
          0                27           1            53    1    17      -0.1448697374E-03      61    1   39        -0.1311853488E-03      0.1302228969E-02
          0                28           1            47    1    39      -0.1207961277E-03      61    1   39        -0.1312933122E-03      0.1259472019E-02
          0                29           1            53    1    25      -0.1353771002E-03      61    1   39        -0.1210366056E-03      0.1205568464E-02
          0                30           1            47    1    39      -0.1116384477E-03      61    1   39        -0.1218332842E-03      0.1167036362E-02
                                                   Max.-Head-Change                         Max.-Flux-Residual
  Residual-Control   Outer-Iter.   Inner-Iter.     Column Row Layer    Maximum-Head-Change  Column Row Layer    Maximum-Flux-Residual          L2-NORM 
          0                31           1            53    1    25      -0.1257618136E-03      61    1   39        -0.1120486016E-03      0.1116830345E-02
          0                32           1            47    1    39      -0.1036184293E-03      61    1   39        -0.1128781147E-03      0.1081283870E-02
          0                33           1            53    1    25      -0.1164630310E-03      61    1   39        -0.1038473809E-03      0.1034864376E-02
          0                34           1            47    1    39      -0.9631907725E-04      61    1   39        -0.1044835249E-03      0.1001778461E-02
          0                35           1            53    1    25      -0.1077060796E-03      61    1   39        -0.9628111147E-04      0.9590104452E-03
          0                36           1            47    1    39      -0.8957352718E-04      61    1   39        -0.9666778377E-04      0.9281220177E-03
          0                37           1            53    1    25      -0.9956270670E-04      61    1   39        -0.8927213548E-04      0.8887647344E-03
          0                38           1            47    1    39      -0.8330239124E-04      61    1   39        -0.8941661204E-04      0.8599072310E-03
          0                39           1            53    1    25      -0.9203131930E-04      61    1   39        -0.8276931678E-04      0.8236913512E-03
          0                40           1            47    1    39      -0.7745943934E-04      61    1   39        -0.8270045464E-04      0.7967354806E-03
                                                   Max.-Head-Change                         Max.-Flux-Residual
  Residual-Control   Outer-Iter.   Inner-Iter.     Column Row Layer    Maximum-Head-Change  Column Row Layer    Maximum-Flux-Residual          L2-NORM 
          0                41           1            53    1    25      -0.8508069067E-04      61    1   39        -0.7673270616E-04      0.7633976272E-03
          0                42           1            47    1    39      -0.7201192874E-04      61    1   39        -0.7648457481E-04      0.7382297581E-03
          0                43           1            53    1    25      -0.7866997802E-04      61    1   39        -0.7112804565E-04      0.7075250240E-03
          0                44           1            47    1    39      -0.6693305043E-04      61    1   39        -0.7073370463E-04      0.6840394177E-03
          0                45           1            53    1    25      -0.7275708884E-04      61    1   39        -0.6592458476E-04      0.6557443624E-03
          0                46           1            47    1    39      -0.6219898007E-04      61    1   39        -0.6541393617E-04      0.6338405633E-03
          0                47           1            53    1    25      -0.6730186353E-04      61    1   39        -0.6109413403E-04      0.6077525811E-03
          0                48           1            47    1    39      -0.5778772934E-04      61    1   39        -0.6049338120E-04      0.5873346509E-03
          0                49           1            53    1    25      -0.6226708701E-04      61    1   39        -0.5661060877E-04      0.5632701919E-03
          0                50           1            47    1    39      -0.5367870138E-04      61    1   39        -0.5594232198E-04      0.5442465427E-03
                                                   Max.-Head-Change                         Max.-Flux-Residual
  Residual-Control   Outer-Iter.   Inner-Iter.     Column Row Layer    Maximum-Head-Change  Column Row Layer    Maximum-Flux-Residual          L2-NORM 
          0                51           1            53    1    25      -0.5761864856E-04      61    1   39        -0.5244977351E-04      0.5220391426E-03
          0                52           1            47    1    39      -0.4985250225E-04      61    1   39        -0.5173316734E-04      0.5043225161E-03
          0                53           1            53    1    25      -0.5332539710E-04      61    1   39        -0.4858906686E-04      0.4838209525E-03
          0                54           1            47    1    39      -0.4629085099E-04      61    1   39        -0.4784034178E-04      0.4673284095E-03
          0                55           1            53    1    25      -0.4935889952E-04      61    1   39        -0.4500746883E-04      0.4483950660E-03
          0                56           1            47    1    37      -0.4298342665E-04      61    1   39        -0.4424015501E-04      0.4330479428E-03
          0                57           1            53    1    25      -0.4569319081E-04      61    1   39        -0.4168538550E-04      0.4155573786E-03
          0                58           1            47    1    37      -0.3991618295E-04      61    1   39        -0.4091067123E-04      0.4012812120E-03
          0                59           1            53    1    25      -0.4230453884E-04      61    1   39        -0.3860454831E-04      0.3851189143E-03
          0                60           1            47    1    37      -0.3706160043E-04      61    1   39        -0.3783158584E-04      0.3718433432E-03
                                                   Max.-Head-Change                         Max.-Flux-Residual
  Residual-Control   Outer-Iter.   Inner-Iter.     Column Row Layer    Maximum-Head-Change  Column Row Layer    Maximum-Flux-Residual          L2-NORM 
          0                61           1            53    1    25      -0.3917122776E-04      61    1   39        -0.3574792308E-04      0.3569046310E-03
          0                62           1            47    1    37      -0.3440576106E-04      61    1   39        -0.3498410572E-04      0.3445632783E-03
          0                63           1            53    1    25      -0.3627336596E-04      61    1   39        -0.3309962844E-04      0.3307523411E-03
          0                64           1            47    1    37      -0.3193555617E-04      61    1   39        -0.3235084040E-04      0.3192826805E-03
          0                65           1            53    1    25      -0.3359271590E-04      61    1   39        -0.3064485912E-04      0.3065117280E-03
          0                66           1            47    1    37      -0.2963864814E-04      61    1   39        -0.2991569849E-04      0.2958549414E-03
          0                67           1            53    1    25      -0.3111254097E-04      61    1   39        -0.2836981673E-04      0.2840434496E-03
          0                68           1            47    1    37      -0.2750343693E-04      61    1   39        -0.2766379305E-04      0.2741442788E-03
          0                69           1            53    1    25      -0.2881746627E-04      61    1   39        -0.2626164493E-04      0.2632183186E-03
          0                70           1            47    1    37      -0.2551902463E-04      61    1   39        -0.2558135120E-04      0.2540249103E-03
                                                   Max.-Head-Change                         Max.-Flux-Residual
  Residual-Control   Outer-Iter.   Inner-Iter.     Column Row Layer    Maximum-Head-Change  Column Row Layer    Maximum-Flux-Residual          L2-NORM 
          0                71           1            53    1    25      -0.2669335765E-04      61    1   39        -0.2430836952E-04      0.2439165510E-03
          0                72           1            47    1    37      -0.2367518111E-04      61    1   39        -0.2365563213E-04      0.2353802990E-03
          0                73           1            53    1    25      -0.2472721291E-04      61    1   39        -0.2249884091E-04      0.2260270723E-03
          0                74           1            47    1    37      -0.2196231258E-04      61    1   39        -0.2187485106E-04      0.2181024610E-03
          0                75           1            53    1    25      -0.2290706125E-04      61    1   39        -0.2082268227E-04      0.2094468811E-03
          0                76           1            47    1    37      -0.2037142960E-04      61    1   39        -0.2022810665E-04      0.2020913277E-03
          0                77           1            53    1    25      -0.2122187527E-04      61    1   39        -0.1927023916E-04      0.1940804608E-03
          0                78           1            47    1    37      -0.1889411469E-04      61    1   39        -0.1870531605E-04      0.1872541593E-03
          0                79           1            53    1    25      -0.1966149057E-04      61    1   39        -0.1783253219E-04      0.1798392337E-03
          0                80           1            47    1    37      -0.1752249393E-04      61    1   39        -0.1729715356E-04      0.1735050035E-03
                                                   Max.-Head-Change                         Max.-Flux-Residual
  Residual-Control   Outer-Iter.   Inner-Iter.     Column Row Layer    Maximum-Head-Change  Column Row Layer    Maximum-Flux-Residual          L2-NORM 
          0                81           1            53    1    25      -0.1821653318E-04      61    1   39        -0.1650121374E-04      0.1666410594E-03
          0                82           1            47    1    37      -0.1624920638E-04      61    1   39        -0.1599499413E-04      0.1607641959E-03
          0                83           1            53    1    25      -0.1687835434E-04      61    1   39        -0.1526852515E-04      0.1544097678E-03
          0                84           1            47    1    37      -0.1506737355E-04      61    1   39        -0.1479086052E-04      0.1489578979E-03
          0                85           1            53    1    25      -0.1563897197E-04      61    1   39        -0.1412725831E-04      0.1430747263E-03
          0                86           1            47    1    37      -0.1397057590E-04      61    1   39        -0.1367737536E-04      0.1380176713E-03
          0                87           1            53    1    25      -0.1449101274E-04      61    1   39        -0.1307071878E-04      0.1325704399E-03
          0                88           1            47    1    37      -0.1295282224E-04      61    1   39        -0.1264771561E-04      0.1278800797E-03
          0                89           1            53    1    25      -0.1342766830E-04      61    1   39        -0.1209269030E-04      0.1228361803E-03
          0                90           1            47    1    37      -0.1200852524E-04      61    1   39        -0.1169557149E-04      0.1184863264E-03
                                                   Max.-Head-Change                         Max.-Flux-Residual
  Residual-Control   Outer-Iter.   Inner-Iter.     Column Row Layer    Maximum-Head-Change  Column Row Layer    Maximum-Flux-Residual          L2-NORM 
          0                91           1            51    1    37      -0.1244453016E-04      61    1   39        -0.1118740303E-04      0.1138156388E-03
          0                92           1            47    1    37      -0.1113247700E-04      61    1   39        -0.1081510806E-04      0.1097819132E-03
          0                93           1            51    1    37      -0.1153464975E-04      61    1   39        -0.1034950202E-04      0.1054566087E-03
          0                94           1            47    1    37      -0.1031982594E-04      61    1   39        -0.1000092919E-04      0.1017163273E-03

    ------------------------------------------------
       NWT REQUIRED           94 OUTER ITERATIONS 
       AND A TOTAL OF        105 INNER ITERATIONS.
    ------------------------------------------------

 OUTPUT CONTROL FOR STRESS PERIOD    2   TIME STEP    7
    PRINT BUDGET
    SAVE HEAD FOR ALL LAYERS
    SAVE DRAWDOWN FOR ALL LAYERS
    SAVE BUDGET
 UBDSV1 SAVING "         STORAGE" ON UNIT  40 AT TIME STEP  7, STRESS PERIOD   2
 UBDSV2 SAVING "   CONSTANT HEAD" ON UNIT  40 AT TIME STEP  7, STRESS PERIOD   2
 UBDSV1 SAVING "FLOW RIGHT FACE " ON UNIT  40 AT TIME STEP  7, STRESS PERIOD   2
 UBDSV1 SAVING "FLOW LOWER FACE " ON UNIT  40 AT TIME STEP  7, STRESS PERIOD   2
 UBDSV4 SAVING "          DRAINS" ON UNIT  40 AT TIME STEP  7, STRESS PERIOD   2
 UBDSV4 SAVING " HEAD DEP BOUNDS" ON UNIT  40 AT TIME STEP  7, STRESS PERIOD   2

 SAVING SATURATED THICKNESS AND FLOW TERMS ON UNIT  333 FOR MT3DMS
 BY THE LINK-MT3DMS PACKAGE V7 AT TIME STEP    7, STRESS PERIOD    2


 HEAD WILL BE SAVED ON UNIT    2 AT END OF TIME STEP    7, STRESS PERIOD    2

 DRAWDOWN WILL BE SAVED ON UNIT   13 AT END OF TIME STEP    7, STRESS PERIOD    2
1
  VOLUMETRIC BUDGET FOR ENTIRE MODEL AT END OF TIME STEP    7, STRESS PERIOD   2
  ------------------------------------------------------------------------------

     CUMULATIVE VOLUMES      L**3       RATES FOR THIS TIME STEP      L**3/T
     ------------------                 ------------------------

           IN:                                      IN:
           ---                                      ---
             STORAGE     =          66.2701               STORAGE     =           0.5344
       CONSTANT HEAD     =           0.0000         CONSTANT HEAD     =           0.0000
              DRAINS     =           0.0000                DRAINS     =           0.0000
     HEAD DEP BOUNDS     =         387.7443       HEAD DEP BOUNDS     =           9.0934

                TOTAL IN =         454.0144                  TOTAL IN =           9.6278

          OUT:                                     OUT:
          ----                                     ----
             STORAGE     =       1.7614E-08               STORAGE     =       5.6886E-11
       CONSTANT HEAD     =           0.0000         CONSTANT HEAD     =           0.0000
              DRAINS     =         441.2202                DRAINS     =           9.6299
     HEAD DEP BOUNDS     =          12.8346       HEAD DEP BOUNDS     =           0.0000

               TOTAL OUT =         454.0548                 TOTAL OUT =           9.6299

                IN - OUT =      -4.0375E-02                  IN - OUT =      -2.1439E-03

     PERCENT DISCREPANCY =          -0.01         PERCENT DISCREPANCY =          -0.02






         TIME SUMMARY AT END OF TIME STEP    7 IN STRESS PERIOD    2
                    SECONDS     MINUTES      HOURS       DAYS        YEARS
                    -----------------------------------------------------------
   TIME STEP LENGTH  86400.      1440.0      24.000      1.0000     2.73785E-03
 STRESS PERIOD TIME 6.04800E+05  10080.      168.00      7.0000     1.91650E-02
         TOTAL TIME 1.46880E+06  24480.      408.00      17.000     4.65435E-02
1
 
 SOLVING FOR HEAD 
                                                   Max.-Head-Change                         Max.-Flux-Residual
  Residual-Control   Outer-Iter.   Inner-Iter.     Column Row Layer    Maximum-Head-Change  Column Row Layer    Maximum-Flux-Residual          L2-NORM 
          0                 1          11            61    1    21      -0.7270986648E-01      53    1   25        -0.1103851691E-01      0.6202922067E-01
          0                 2           2            40    1    11      -0.5273509845E-02      40    1   23        -0.2162930405E-01      0.5200218454E-01
          0                 3           1            37    1     9      -0.2910326206E-03      41    1   23         0.5238985315E-03      0.2355093839E-02
          0                 4           1            28    1    20      -0.2433079727E-03      35    1   25        -0.2135271108E-03      0.1819820117E-02
          0                 5           1            37    1     9      -0.2752825304E-03      39    1   25        -0.1944900871E-03      0.1647487026E-02
          0                 6           1            36    1    26      -0.1295092554E-03      37    1   27        -0.1684878376E-03      0.1515538997E-02
          0                 7           1            37    1     9      -0.2444481931E-03      39    1   25        -0.1299132882E-03      0.1404512430E-02
          0                 8           1            36    1    26      -0.1147252015E-03      42    1   26        -0.1398560458E-03      0.1348438405E-02
          0                 9           1            37    1    22      -0.1686497288E-03      39    1   25        -0.1109906347E-03      0.1253266614E-02
          0                10           1            37    1    27      -0.1095964823E-03      42    1   26        -0.1199827899E-03      0.1212457500E-02
                                                   Max.-Head-Change                         Max.-Flux-Residual
  Residual-Control   Outer-Iter.   Inner-Iter.     Column Row Layer    Maximum-Head-Change  Column Row Layer    Maximum-Flux-Residual          L2-NORM 
          0                11           1            39    1    10      -0.1373913695E-03      41    1   27        -0.9947994903E-04      0.1147653914E-02
          0                12           1            37    1    27      -0.1023981478E-03      42    1   26        -0.1076871518E-03      0.1109405066E-02
          0                13           1            39    1    10      -0.1220613756E-03      41    1   27        -0.9290830803E-04      0.1057411980E-02
          0                14           1            37    1    27      -0.9447200236E-04      42    1   26        -0.9841672156E-04      0.1022297678E-02
          0                15           1            39    1    10      -0.1106980310E-03      42    1   26        -0.8686467783E-04      0.9763711941E-03
          0                16           1            39    1    39      -0.8737010460E-04      42    1   26        -0.9038032522E-04      0.9443663511E-03
          0                17           1            39    1    10      -0.1011531914E-03      42    1   26        -0.8119784667E-04      0.9025656787E-03
          0                18           1            40    1    40      -0.8107761458E-04      42    1   26        -0.8311301943E-04      0.8733951065E-03
          0                19           1            39    1    10      -0.9273916887E-04      42    1   26        -0.7572424639E-04      0.8348912795E-03
          0                20           1            40    1    40      -0.7516743538E-04      42    1   26        -0.7645293888E-04      0.8082736205E-03
                                                   Max.-Head-Change                         Max.-Flux-Residual
  Residual-Control   Outer-Iter.   Inner-Iter.     Column Row Layer    Maximum-Head-Change  Column Row Layer    Maximum-Flux-Residual          L2-NORM 
          0                21           1            43    1    39      -0.8524329429E-04      42    1   26        -0.7048409500E-04      0.7726095194E-03
          0                22           1            42    1    40      -0.6966835557E-04      42    1   26        -0.7032651723E-04      0.7482881058E-03
          0                23           1            44    1    40      -0.7933345575E-04      42    1   26        -0.6550817531E-04      0.7151690604E-03
          0                24           1            42    1    40      -0.6452317360E-04      42    1   26        -0.6468933589E-04      0.6929125036E-03
          0                25           1            44    1    40      -0.7380352531E-04      42    1   26        -0.6081451721E-04      0.6621257997E-03
          0                26           1            53    1    25      -0.6009727062E-04      42    1   26        -0.5950662975E-04      0.6417259106E-03
          0                27           1            53    1    25      -0.6867427184E-04      42    1   26        -0.5640981973E-04      0.6131040248E-03
          0                28           1            53    1    25      -0.5592309298E-04      42    1   26        -0.5474676516E-04      0.5943738844E-03
          0                29           1            53    1    25      -0.6391223953E-04      42    1   26        -0.5229218479E-04      0.5677757479E-03
          0                30           1            53    1    25      -0.5199332771E-04      42    1   26        -0.5037930353E-04      0.5505480450E-03
                                                   Max.-Head-Change                         Max.-Flux-Residual
  Residual-Control   Outer-Iter.   Inner-Iter.     Column Row Layer    Maximum-Head-Change  Column Row Layer    Maximum-Flux-Residual          L2-NORM 
          0                31           1            53    1    25      -0.5940382109E-04      42    1   26        -0.4845378544E-04      0.5258487293E-03
          0                32           1            53    1    25      -0.4831409825E-04      42    1   26        -0.4637465858E-04      0.5099742487E-03
          0                33           1            53    1    24      -0.5515326246E-04      42    1   26        -0.4488302997E-04      0.4870589948E-03
          0                34           1            53    1    25      -0.4488227603E-04      42    1   26        -0.4270423699E-04      0.4724051880E-03
          0                35           1            53    1    24      -0.5115990230E-04      42    1   26        -0.4156616649E-04      0.4511658901E-03
          0                36           1            53    1    25      -0.4168912273E-04      42    1   26        -0.3934067965E-04      0.4376154802E-03
          0                37           1            53    1    18      -0.4741962320E-04      42    1   26        -0.3848840595E-04      0.4179486743E-03
          0                38           1            53    1    25      -0.3872264510E-04      42    1   26        -0.3625807477E-04      0.4053982703E-03
          0                39           1            53    1    18      -0.4392562393E-04      42    1   26        -0.3563467433E-04      0.3872040988E-03
          0                40           1            53    1    25      -0.3596915606E-04      42    1   26        -0.3343211768E-04      0.3755628080E-03
                                                   Max.-Head-Change                         Max.-Flux-Residual
  Residual-Control   Outer-Iter.   Inner-Iter.     Column Row Layer    Maximum-Head-Change  Column Row Layer    Maximum-Flux-Residual          L2-NORM 
          0                41           1            53    1    18      -0.4066921177E-04      42    1   26        -0.3299009430E-04      0.3587446300E-03
          0                42           1            53    1    25      -0.3341432657E-04      42    1   26        -0.3084021188E-04      0.3479326705E-03
          0                43           1            53    1    18      -0.3764025447E-04      42    1   26        -0.3054028159E-04      0.3323970893E-03
          0                44           1            53    1    25      -0.3104388478E-04      42    1   26        -0.2846151813E-04      0.3223444237E-03
          0                45           1            53    1    18      -0.3482756329E-04      42    1   26        -0.2827151317E-04      0.3080015440E-03
          0                46           1            53    1    25      -0.2884407644E-04      42    1   26        -0.2627695318E-04      0.2986465704E-03
          0                47           1            53    1    18      -0.3221926007E-04      42    1   26        -0.2617081651E-04      0.2854103531E-03
          0                48           1            53    1    25      -0.2680193363E-04      42    1   26        -0.2426914531E-04      0.2766986776E-03
          0                49           1            53    1    18      -0.2980310935E-04      42    1   26        -0.2422600326E-04      0.2644872923E-03
          0                50           1            53    1    25      -0.2490541518E-04      42    1   26        -0.2242235556E-04      0.2563706220E-03
                                                   Max.-Head-Change                         Max.-Flux-Residual
  Residual-Control   Outer-Iter.   Inner-Iter.     Column Row Layer    Maximum-Head-Change  Column Row Layer    Maximum-Flux-Residual          L2-NORM 
          0                51           1            53    1    18      -0.2756680680E-04      42    1   26        -0.2242567112E-04      0.2451067283E-03
          0                52           1            53    1    25      -0.2314344730E-04      42    1   26        -0.2072237018E-04      0.2375418966E-03
          0                53           1            53    1    18      -0.2549821964E-04      42    1   26        -0.2075918687E-04      0.2271528276E-03
          0                54           1            53    1    25      -0.2150590670E-04      42    1   26        -0.1915637779E-04      0.2201009646E-03
          0                55           1            53    1    18      -0.2358557155E-04      42    1   26        -0.1921665628E-04      0.2105187984E-03
          0                56           1            53    1    25      -0.1998355779E-04      42    1   26        -0.1771283999E-04      0.2039446371E-03
          0                57           1            53    1    17      -0.2181758246E-04      42    1   26        -0.1778888770E-04      0.1951061693E-03
          0                58           1            53    1    25      -0.1856797826E-04      42    1   26        -0.1638136141E-04      0.1889774828E-03
          0                59           1            53    1    17      -0.2018355157E-04      42    1   26        -0.1646735197E-04      0.1808241116E-03
          0                60           1            53    1    25      -0.1725147312E-04      42    1   26        -0.1515256656E-04      0.1751112598E-03
                                                   Max.-Head-Change                         Max.-Flux-Residual
  Residual-Control   Outer-Iter.   Inner-Iter.     Column Row Layer    Maximum-Head-Change  Column Row Layer    Maximum-Flux-Residual          L2-NORM 
          0                61           1            53    1    17      -0.1867341485E-04      42    1   26        -0.1524414216E-04      0.1675888084E-03
          0                62           1            53    1    25      -0.1602699719E-04      42    1   26        -0.1401798528E-04      0.1622643816E-03
          0                63           1            53    1    17      -0.1727775999E-04      42    1   26        -0.1411193304E-04      0.1553228728E-03
          0                64           1            53    1    25      -0.1488807996E-04      42    1   26        -0.1296994986E-04      0.1503614094E-03
          0                65           1            53    1    17      -0.1598782953E-04      42    1   26        -0.1306394100E-04      0.1439548177E-03
          0                66           1            53    1    25      -0.1382875797E-04      42    1   26        -0.1200150450E-04      0.1393325819E-03
          0                67           1            53    1    17      -0.1479550259E-04      42    1   26        -0.1209388665E-04      0.1334185689E-03
          0                68           1            53    1    25      -0.1284352178E-04      42    1   26        -0.1110632354E-04      0.1291133773E-03
          0                69           1            53    1    17      -0.1369326751E-04      42    1   26        -0.1119595845E-04      0.1236530253E-03
          0                70           1            53    1    25      -0.1192726615E-04      42    1   26        -0.1027864343E-04      0.1196441073E-03
                                                   Max.-Head-Change                         Max.-Flux-Residual
  Residual-Control   Outer-Iter.   Inner-Iter.     Column Row Layer    Maximum-Head-Change  Column Row Layer    Maximum-Flux-Residual          L2-NORM 
          0                71           1            53    1    17      -0.1267418681E-04      42    1   26        -0.1036477860E-04      0.1146016587E-03
          0                72           1            53    1    25      -0.1107525381E-04      42    1   26        -0.9513200723E-05      0.1108695437E-03
          0                73           1            53    1    17      -0.1173186078E-04      42    1   26        -0.9595371893E-05      0.1062121504E-03
          0                74           1            53    1    25      -0.1028307717E-04      42    1   26        -0.8805180357E-05      0.1027385729E-03

    ------------------------------------------------
       NWT REQUIRED           74 OUTER ITERATIONS 
       AND A TOTAL OF         85 INNER ITERATIONS.
    ------------------------------------------------

 OUTPUT CONTROL FOR STRESS PERIOD    2   TIME STEP    8
    PRINT BUDGET
    SAVE HEAD FOR ALL LAYERS
    SAVE DRAWDOWN FOR ALL LAYERS
    SAVE BUDGET
 UBDSV1 SAVING "         STORAGE" ON UNIT  40 AT TIME STEP  8, STRESS PERIOD   2
 UBDSV2 SAVING "   CONSTANT HEAD" ON UNIT  40 AT TIME STEP  8, STRESS PERIOD   2
 UBDSV1 SAVING "FLOW RIGHT FACE " ON UNIT  40 AT TIME STEP  8, STRESS PERIOD   2
 UBDSV1 SAVING "FLOW LOWER FACE " ON UNIT  40 AT TIME STEP  8, STRESS PERIOD   2
 UBDSV4 SAVING "          DRAINS" ON UNIT  40 AT TIME STEP  8, STRESS PERIOD   2
 UBDSV4 SAVING " HEAD DEP BOUNDS" ON UNIT  40 AT TIME STEP  8, STRESS PERIOD   2

 SAVING SATURATED THICKNESS AND FLOW TERMS ON UNIT  333 FOR MT3DMS
 BY THE LINK-MT3DMS PACKAGE V7 AT TIME STEP    8, STRESS PERIOD    2


 HEAD WILL BE SAVED ON UNIT    2 AT END OF TIME STEP    8, STRESS PERIOD    2

 DRAWDOWN WILL BE SAVED ON UNIT   13 AT END OF TIME STEP    8, STRESS PERIOD    2
1
  VOLUMETRIC BUDGET FOR ENTIRE MODEL AT END OF TIME STEP    8, STRESS PERIOD   2
  ------------------------------------------------------------------------------

     CUMULATIVE VOLUMES      L**3       RATES FOR THIS TIME STEP      L**3/T
     ------------------                 ------------------------

           IN:                                      IN:
           ---                                      ---
             STORAGE     =          66.5611               STORAGE     =           0.2910
       CONSTANT HEAD     =           0.0000         CONSTANT HEAD     =           0.0000
              DRAINS     =           0.0000                DRAINS     =           0.0000
     HEAD DEP BOUNDS     =         396.9423       HEAD DEP BOUNDS     =           9.1980

                TOTAL IN =         463.5034                  TOTAL IN =           9.4889

          OUT:                                     OUT:
          ----                                     ----
             STORAGE     =       1.7778E-08               STORAGE     =       1.6411E-10
       CONSTANT HEAD     =           0.0000         CONSTANT HEAD     =           0.0000
              DRAINS     =         450.7113                DRAINS     =           9.4911
     HEAD DEP BOUNDS     =          12.8346       HEAD DEP BOUNDS     =           0.0000

               TOTAL OUT =         463.5459                 TOTAL OUT =           9.4911

                IN - OUT =      -4.2572E-02                  IN - OUT =      -2.1954E-03

     PERCENT DISCREPANCY =          -0.01         PERCENT DISCREPANCY =          -0.02






         TIME SUMMARY AT END OF TIME STEP    8 IN STRESS PERIOD    2
                    SECONDS     MINUTES      HOURS       DAYS        YEARS
                    -----------------------------------------------------------
   TIME STEP LENGTH  86400.      1440.0      24.000      1.0000     2.73785E-03
 STRESS PERIOD TIME 6.91200E+05  11520.      192.00      8.0000     2.19028E-02
         TOTAL TIME 1.55520E+06  25920.      432.00      18.000     4.92813E-02
1
 
 SOLVING FOR HEAD 
                                                   Max.-Head-Change                         Max.-Flux-Residual
  Residual-Control   Outer-Iter.   Inner-Iter.     Column Row Layer    Maximum-Head-Change  Column Row Layer    Maximum-Flux-Residual          L2-NORM 
          0                 1           6            71    1    26      -0.2483748644E-01      53    1   25        -0.5953400438E-02      0.3345389639E-01
          0                 2           6            53    1    25      -0.1577004163E-01      78    1   31         0.8938996577E-02      0.1527698948E-01
          0                 3           1            23    1    21      -0.3234706617E-03      22    1   21         0.3005017010E-02      0.4281780026E-02
          0                 4           1            29    1    22      -0.2064142177E-03      21    1   23        -0.1407322812E-03      0.9945120344E-03
          0                 5           1            25    1     3      -0.8578225700E-04      24    1   22        -0.1196352673E-03      0.8417913396E-03
          0                 6           1            37    1     9      -0.1208370448E-03      21    1   23        -0.7866054901E-04      0.7503298877E-03
          0                 7           1            25    1     3      -0.6393143824E-04      24    1   22        -0.8333233907E-04      0.7051999935E-03
          0                 8           1            37    1     9      -0.8588767434E-04      21    1   23        -0.5466531931E-04      0.6574693539E-03
          0                 9           1            37    1    21      -0.5961913389E-04      24    1   22        -0.5818241578E-04      0.6325678822E-03
          0                10           1            37    1     9      -0.6669838669E-04      53    1   35        -0.5294455536E-04      0.5994596470E-03
                                                   Max.-Head-Change                         Max.-Flux-Residual
  Residual-Control   Outer-Iter.   Inner-Iter.     Column Row Layer    Maximum-Head-Change  Column Row Layer    Maximum-Flux-Residual          L2-NORM 
          0                11           1            37    1    21      -0.5631525989E-04      53    1   35        -0.5499262318E-04      0.5786711655E-03
          0                12           1            37    1    22      -0.5713319849E-04      53    1   35        -0.5429729049E-04      0.5529892507E-03
          0                13           1            37    1    21      -0.5208328853E-04      53    1   35        -0.5384325246E-04      0.5335466495E-03
          0                14           1            37    1    22      -0.5128147254E-04      53    1   35        -0.5333544348E-04      0.5116116505E-03
          0                15           1            42    1    40      -0.4795716943E-04      53    1   35        -0.5187870835E-04      0.4934734992E-03
          0                16           1            40    1    40      -0.4696902437E-04      53    1   35        -0.5120347907E-04      0.4737722107E-03
          0                17           1            53    1    25      -0.4525479334E-04      53    1   35        -0.4939019968E-04      0.4569584422E-03
          0                18           1            53    1    17      -0.4377560463E-04      53    1   35        -0.4856069629E-04      0.4389382810E-03
          0                19           1            53    1    25      -0.4272762545E-04      53    1   35        -0.4663217396E-04      0.4233566688E-03
          0                20           1            53    1    17      -0.4112255518E-04      53    1   35        -0.4572557134E-04      0.4067701693E-03
                                                   Max.-Head-Change                         Max.-Flux-Residual
  Residual-Control   Outer-Iter.   Inner-Iter.     Column Row Layer    Maximum-Head-Change  Column Row Layer    Maximum-Flux-Residual          L2-NORM 
          0                21           1            53    1    25      -0.4014555880E-04      53    1   35        -0.4378515072E-04      0.3923168106E-03
          0                22           1            53    1    17      -0.3849062894E-04      53    1   35        -0.4285910643E-04      0.3770095576E-03
          0                23           1            53    1    25      -0.3759611176E-04      53    1   35        -0.4095908548E-04      0.3635937516E-03
          0                24           1            53    1    17      -0.3593674070E-04      53    1   35        -0.4004799681E-04      0.3494476085E-03
          0                25           1            53    1    25      -0.3512735423E-04      53    1   35        -0.3821676748E-04      0.3369905572E-03
          0                26           1            53    1    17      -0.3349275078E-04      53    1   35        -0.3733963305E-04      0.3239068044E-03
          0                27           1            53    1    25      -0.3276563587E-04      53    1   35        -0.3559247995E-04      0.3123382469E-03
          0                28           1            53    1    17      -0.3117486717E-04      53    1   35        -0.3475909392E-04      0.3002309972E-03
          0                29           1            53    1    25      -0.3052444234E-04      53    1   35        -0.3310356828E-04      0.2894870768E-03
          0                30           1            53    1    17      -0.2898978560E-04      53    1   35        -0.3231833534E-04      0.2782799626E-03
                                                   Max.-Head-Change                         Max.-Flux-Residual
  Residual-Control   Outer-Iter.   Inner-Iter.     Column Row Layer    Maximum-Head-Change  Column Row Layer    Maximum-Flux-Residual          L2-NORM 
          0                31           1            53    1    25      -0.2840940746E-04      53    1   35        -0.3075725982E-04      0.2683020041E-03
          0                32           1            53    1    17      -0.2693845045E-04      53    1   35        -0.3002144351E-04      0.2579262073E-03
          0                33           1            53    1    25      -0.2642131085E-04      53    1   35        -0.2855469259E-04      0.2486599707E-03
          0                34           1            53    1    17      -0.2501835550E-04      53    1   35        -0.2786773985E-04      0.2390529252E-03
          0                35           1            53    1    25      -0.2455793209E-04      53    1   35        -0.2649333931E-04      0.2304481061E-03
          0                36           1            53    1    17      -0.2322496252E-04      53    1   35        -0.2585366531E-04      0.2215525790E-03
          0                37           1            53    1    25      -0.2281521932E-04      53    1   35        -0.2456849211E-04      0.2135624396E-03
          0                38           1            53    1    17      -0.2155258615E-04      53    1   35        -0.2397394994E-04      0.2053258452E-03
          0                39           1            53    1    25      -0.2118804535E-04      53    1   35        -0.2277418849E-04      0.1979069207E-03
          0                40           1            53    1    17      -0.1999495142E-04      53    1   35        -0.2222235429E-04      0.1902807919E-03
                                                   Max.-Head-Change                         Max.-Flux-Residual
  Residual-Control   Outer-Iter.   Inner-Iter.     Column Row Layer    Maximum-Head-Change  Column Row Layer    Maximum-Flux-Residual          L2-NORM 
          0                41           1            53    1    25      -0.1967069414E-04      53    1   35        -0.2110379873E-04      0.1833926413E-03
          0                42           1            53    1    17      -0.1854554799E-04      53    1   35        -0.2059214302E-04      0.1763322055E-03
          0                43           1            53    1    25      -0.1825718244E-04      53    1   35        -0.1955040227E-04      0.1699371951E-03
          0                44           1            53    1    17      -0.1719785422E-04      53    1   35        -0.1907639296E-04      0.1634010241E-03
          0                45           1            53    1    25      -0.1694147049E-04      53    1   35        -0.1810702912E-04      0.1574641332E-03
          0                46           1            53    1    17      -0.1594547734E-04      53    1   35        -0.1766819392E-04      0.1514138503E-03
          0                47           1            53    1    25      -0.1571759714E-04      53    1   35        -0.1676681615E-04      0.1459024920E-03
          0                48           1            53    1    17      -0.1478224112E-04      53    1   35        -0.1636077681E-04      0.1403025184E-03
          0                49           1            53    1    25      -0.1457976878E-04      53    1   35        -0.1552310422E-04      0.1351863774E-03
          0                50           1            53    1    17      -0.1370223575E-04      53    1   35        -0.1514759649E-04      0.1300037097E-03
                                                   Max.-Head-Change                         Max.-Flux-Residual
  Residual-Control   Outer-Iter.   Inner-Iter.     Column Row Layer    Maximum-Head-Change  Column Row Layer    Maximum-Flux-Residual          L2-NORM 
          0                51           1            53    1    25      -0.1352241361E-04      53    1   35        -0.1436950043E-04      0.1252545897E-03
          0                52           1            53    1    17      -0.1269984720E-04      53    1   35        -0.1402238232E-04      0.1204586029E-03
          0                53           1            53    1    25      -0.1254021425E-04      53    1   35        -0.1329991267E-04      0.1160502859E-03
          0                54           1            53    1    17      -0.1176976560E-04      53    1   35        -0.1297916697E-04      0.1116125568E-03
          0                55           1            53    1    25      -0.1162812674E-04      53    1   35        -0.1230856668E-04      0.1075206699E-03
          0                56           1            53    1    17      -0.1090699055E-04      53    1   35        -0.1201230148E-04      0.1034148158E-03

    ------------------------------------------------
       NWT REQUIRED           56 OUTER ITERATIONS 
       AND A TOTAL OF         66 INNER ITERATIONS.
    ------------------------------------------------

 OUTPUT CONTROL FOR STRESS PERIOD    2   TIME STEP    9
    PRINT BUDGET
    SAVE HEAD FOR ALL LAYERS
    SAVE DRAWDOWN FOR ALL LAYERS
    SAVE BUDGET
 UBDSV1 SAVING "         STORAGE" ON UNIT  40 AT TIME STEP  9, STRESS PERIOD   2
 UBDSV2 SAVING "   CONSTANT HEAD" ON UNIT  40 AT TIME STEP  9, STRESS PERIOD   2
 UBDSV1 SAVING "FLOW RIGHT FACE " ON UNIT  40 AT TIME STEP  9, STRESS PERIOD   2
 UBDSV1 SAVING "FLOW LOWER FACE " ON UNIT  40 AT TIME STEP  9, STRESS PERIOD   2
 UBDSV4 SAVING "          DRAINS" ON UNIT  40 AT TIME STEP  9, STRESS PERIOD   2
 UBDSV4 SAVING " HEAD DEP BOUNDS" ON UNIT  40 AT TIME STEP  9, STRESS PERIOD   2

 SAVING SATURATED THICKNESS AND FLOW TERMS ON UNIT  333 FOR MT3DMS
 BY THE LINK-MT3DMS PACKAGE V7 AT TIME STEP    9, STRESS PERIOD    2


 HEAD WILL BE SAVED ON UNIT    2 AT END OF TIME STEP    9, STRESS PERIOD    2

 DRAWDOWN WILL BE SAVED ON UNIT   13 AT END OF TIME STEP    9, STRESS PERIOD    2
1
  VOLUMETRIC BUDGET FOR ENTIRE MODEL AT END OF TIME STEP    9, STRESS PERIOD   2
  ------------------------------------------------------------------------------

     CUMULATIVE VOLUMES      L**3       RATES FOR THIS TIME STEP      L**3/T
     ------------------                 ------------------------

           IN:                                      IN:
           ---                                      ---
             STORAGE     =          66.7182               STORAGE     =           0.1572
       CONSTANT HEAD     =           0.0000         CONSTANT HEAD     =           0.0000
              DRAINS     =           0.0000                DRAINS     =           0.0000
     HEAD DEP BOUNDS     =         406.1968       HEAD DEP BOUNDS     =           9.2545

                TOTAL IN =         472.9150                  TOTAL IN =           9.4117

          OUT:                                     OUT:
          ----                                     ----
             STORAGE     =       1.8143E-08               STORAGE     =       3.6469E-10
       CONSTANT HEAD     =           0.0000         CONSTANT HEAD     =           0.0000
              DRAINS     =         460.1252                DRAINS     =           9.4139
     HEAD DEP BOUNDS     =          12.8346       HEAD DEP BOUNDS     =           0.0000

               TOTAL OUT =         472.9598                 TOTAL OUT =           9.4139

                IN - OUT =      -4.4769E-02                  IN - OUT =      -2.2011E-03

     PERCENT DISCREPANCY =          -0.01         PERCENT DISCREPANCY =          -0.02






         TIME SUMMARY AT END OF TIME STEP    9 IN STRESS PERIOD    2
                    SECONDS     MINUTES      HOURS       DAYS        YEARS
                    -----------------------------------------------------------
   TIME STEP LENGTH  86400.      1440.0      24.000      1.0000     2.73785E-03
 STRESS PERIOD TIME 7.77600E+05  12960.      216.00      9.0000     2.46407E-02
         TOTAL TIME 1.64160E+06  27360.      456.00      19.000     5.20192E-02
1
 
 SOLVING FOR HEAD 
                                                   Max.-Head-Change                         Max.-Flux-Residual
  Residual-Control   Outer-Iter.   Inner-Iter.     Column Row Layer    Maximum-Head-Change  Column Row Layer    Maximum-Flux-Residual          L2-NORM 
          0                 1           6            61    1    21      -0.1361818231E-01      53    1   25        -0.3336611504E-02      0.1817973153E-01
          0                 2           2            52    1    17      -0.2447064504E-02      52    1   25        -0.8584150255E-02      0.1453412115E-01
          0                 3           1            46    1    40      -0.3814263965E-03      52    1   28        -0.3822119575E-03      0.3209776977E-02
          0                 4           1            48    1    40      -0.3393708171E-03      54    1   26        -0.3966798752E-03      0.3082133338E-02
          0                 5           1            51    1    16      -0.3906518809E-03      52    1   28        -0.3318062616E-03      0.2940636722E-02
          0                 6           1            61    1    25      -0.2961202791E-03      61    1   27        -0.4052655549E-03      0.2878667076E-02
          0                 7           1            61    1    26      -0.3543041506E-03      52    1   28        -0.2917324774E-03      0.2704800033E-02
          0                 8           1            61    1    25      -0.2962176397E-03      54    1   26        -0.3069005525E-03      0.2618369259E-02
          0                 9           1            61    1    21      -0.2962455747E-03      52    1   28        -0.2791791689E-03      0.2498077166E-02
          0                10           1            61    1    25      -0.2861594449E-03      54    1   26        -0.2626412876E-03      0.2414436540E-02
                                                   Max.-Head-Change                         Max.-Flux-Residual
  Residual-Control   Outer-Iter.   Inner-Iter.     Column Row Layer    Maximum-Head-Change  Column Row Layer    Maximum-Flux-Residual          L2-NORM 
          0                11           1            61    1    21      -0.2646434122E-03      52    1   28        -0.2596195162E-03      0.2312108672E-02
          0                12           1            61    1    25      -0.2661320449E-03      48    1   28        -0.2358401451E-03      0.2231378182E-02
          0                13           1            61    1    21      -0.2450712131E-03      52    1   28        -0.2366730924E-03      0.2140497976E-02
          0                14           1            61    1    25      -0.2406535943E-03      48    1   28        -0.2142306955E-03      0.2064077413E-02
          0                15           1            61    1    21      -0.2314581008E-03      52    1   28        -0.2133506576E-03      0.1981831622E-02
          0                16           1            61    1    25      -0.2141690265E-03      48    1   28        -0.1954918327E-03      0.1910631025E-02
          0                17           1            61    1    21      -0.2210240305E-03      52    1   28        -0.1913490079E-03      0.1835383211E-02
          0                18           1            61    1    25      -0.1892272292E-03      48    1   28        -0.1787850094E-03      0.1769592723E-02
          0                19           1            61    1    26      -0.2123864544E-03      52    1   28        -0.1713530007E-03      0.1700192246E-02
          0                20           1            49    1    29      -0.1678678119E-03      48    1   28        -0.1635853012E-03      0.1639551389E-02
                                                   Max.-Head-Change                         Max.-Flux-Residual
  Residual-Control   Outer-Iter.   Inner-Iter.     Column Row Layer    Maximum-Head-Change  Column Row Layer    Maximum-Flux-Residual          L2-NORM 
          0                21           1            61    1    26      -0.2047914437E-03      52    1   28        -0.1534899896E-03      0.1575128548E-02
          0                22           1            49    1    15      -0.1494343576E-03      54    1   26        -0.1507858578E-03      0.1519188216E-02
          0                23           1            61    1    26      -0.1978000220E-03      52    1   28        -0.1376384747E-03      0.1459071673E-02
          0                24           1            49    1    15      -0.1336146062E-03      54    1   26        -0.1393520922E-03      0.1407345669E-02
          0                25           1            61    1    26      -0.1911297079E-03      52    1   28        -0.1235898953E-03      0.1351014881E-02
          0                26           1            49    1    15      -0.1196269980E-03      54    1   26        -0.1287545151E-03      0.1303049441E-02
          0                27           1            61    1    26      -0.1845802348E-03      52    1   28        -0.1111223127E-03      0.1250101956E-02
          0                28           1            49    1    15      -0.1072545239E-03      54    1   26        -0.1188683426E-03      0.1205501497E-02
          0                29           1            61    1    26      -0.1779989538E-03      52    1   28        -0.1000300483E-03      0.1155629086E-02
          0                30           1            49    1    15      -0.9628858424E-04      54    1   26        -0.1096077522E-03      0.1114061708E-02
                                                   Max.-Head-Change                         Max.-Flux-Residual
  Residual-Control   Outer-Iter.   Inner-Iter.     Column Row Layer    Maximum-Head-Change  Column Row Layer    Maximum-Flux-Residual          L2-NORM 
          0                31           1            61    1    26      -0.1712664808E-03      53    1   27        -0.9076505853E-04      0.1067032169E-02
          0                32           1            49    1    15      -0.8654359493E-04      49    1   27        -0.1015315701E-03      0.1028226516E-02
          0                33           1            61    1    26      -0.1642928945E-03      53    1   27        -0.8295507504E-04      0.9838689461E-03
          0                34           1            49    1    15      -0.7786013362E-04      49    1   27        -0.9424078610E-04      0.9476075222E-03
          0                35           1            61    1    26      -0.1570189837E-03      53    1   27        -0.7565001573E-04      0.9057995141E-03
          0                36           1            49    1    15      -0.7010350929E-04      49    1   27        -0.8716622290E-04      0.8719105128E-03
          0                37           1            61    1    26      -0.1494190415E-03      53    1   27        -0.6884529847E-04      0.8325663362E-03
          0                38           1            49    1    15      -0.6316068445E-04      49    1   27        -0.8031603011E-04      0.8009148065E-03
          0                39           1            61    1    26      -0.1415027171E-03      53    1   27        -0.6253472591E-04      0.7639741701E-03
          0                40           1            49    1    15      -0.5693677696E-04      49    1   27        -0.7371423371E-04      0.7344529474E-03
                                                   Max.-Head-Change                         Max.-Flux-Residual
  Residual-Control   Outer-Iter.   Inner-Iter.     Column Row Layer    Maximum-Head-Change  Column Row Layer    Maximum-Flux-Residual          L2-NORM 
          0                41           1            61    1    26      -0.1333143262E-03      53    1   27        -0.5670924870E-04      0.6998703775E-03
          0                42           1            53    1    35      -0.5142197359E-04      49    1   27        -0.6739464663E-04      0.6723912047E-03
          0                43           1            61    1    26      -0.1249287961E-03      53    1   27        -0.5135604101E-04      0.6401263879E-03
          0                44           1            53    1    35      -0.4658224798E-04      49    1   27        -0.6139429686E-04      0.6146117307E-03
          0                45           1            61    1    26      -0.1164443256E-03      54    1   26        -0.4656274932E-04      0.5846213179E-03
          0                46           1            53    1    35      -0.4220827195E-04      49    1   27        -0.5574731279E-04      0.5609974230E-03
          0                47           1            61    1    26      -0.1079726680E-03      54    1   26        -0.4249810227E-04      0.5332287897E-03
          0                48           1            53    1    35      -0.3825340643E-04      49    1   27        -0.5048017246E-04      0.5114204275E-03
          0                49           1            61    1    26      -0.9962851625E-04      54    1   26        -0.3873664784E-04      0.4858077138E-03
          0                50           1            54    1    36      -0.3470343970E-04      49    1   27        -0.4560887692E-04      0.4657348447E-03
                                                   Max.-Head-Change                         Max.-Flux-Residual
  Residual-Control   Outer-Iter.   Inner-Iter.     Column Row Layer    Maximum-Head-Change  Column Row Layer    Maximum-Flux-Residual          L2-NORM 
          0                51           1            61    1    26      -0.9151963420E-04      54    1   26        -0.3526966194E-04      0.4421973311E-03
          0                52           1            54    1    36      -0.3152383382E-04      49    1   27        -0.4113810911E-04      0.4237736560E-03
          0                53           1            61    1    26      -0.8373905956E-04      54    1   26        -0.3208570287E-04      0.4022162393E-03
          0                54           1            54    1    36      -0.2864253408E-04      49    1   27        -0.3706202062E-04      0.3853493473E-03
          0                55           1            61    1    26      -0.7636019011E-04      54    1   26        -0.2917101149E-04      0.3656646535E-03
          0                56           1            54    1    36      -0.2603211698E-04      49    1   27        -0.3336607011E-04      0.3502573151E-03
          0                57           1            61    1    26      -0.6943485526E-04      54    1   26        -0.2651007134E-04      0.3323288487E-03
          0                58           1            54    1    36      -0.2366766904E-04      49    1   27        -0.3002932036E-04      0.3182809665E-03
          0                59           1            61    1    26      -0.6299387195E-04      54    1   26        -0.2408622261E-04      0.3019866994E-03
          0                60           1            46    1    36      -0.2152824823E-04      49    1   27        -0.2702673154E-04      0.2891974741E-03
                                                   Max.-Head-Change                         Max.-Flux-Residual
  Residual-Control   Outer-Iter.   Inner-Iter.     Column Row Layer    Maximum-Head-Change  Column Row Layer    Maximum-Flux-Residual          L2-NORM 
          0                61           1            61    1    26      -0.5704941162E-04      54    1   26        -0.2188225530E-04      0.2744133821E-03
          0                62           1            46    1    36      -0.1962408434E-04      49    1   27        -0.2433116131E-04      0.2627833659E-03
          0                63           1            61    1    26      -0.5159832870E-04      54    1   26        -0.1988092465E-04      0.2493865594E-03
          0                64           1            46    1    36      -0.1789441012E-04      49    1   27        -0.2191494511E-04      0.2388193944E-03
          0                65           1            61    1    26      -0.4662576970E-04      54    1   26        -0.1806536561E-04      0.2266906545E-03
          0                66           1            46    1    36      -0.1632313358E-04      49    1   27        -0.1975103635E-04      0.2170944071E-03
          0                67           1            61    1    26      -0.4210861742E-04      54    1   26        -0.1641940065E-04      0.2061200702E-03
          0                68           1            46    1    36      -0.1489550732E-04      54    1   26        -0.1782162317E-04      0.1974081502E-03
          0                69           1            61    1    26      -0.3801846435E-04      54    1   26        -0.1492774851E-04      0.1874813723E-03
          0                70           1            46    1    36      -0.1359805639E-04      54    1   26        -0.1612488683E-04      0.1795730793E-03
                                                   Max.-Head-Change                         Max.-Flux-Residual
  Residual-Control   Outer-Iter.   Inner-Iter.     Column Row Layer    Maximum-Head-Change  Column Row Layer    Maximum-Flux-Residual          L2-NORM 
          0                71           1            61    1    26      -0.3432401833E-04      54    1   26        -0.1357614924E-04      0.1705945665E-03
          0                72           1            46    1    36      -0.1241850539E-04      54    1   26        -0.1459711700E-04      0.1634153268E-03
          0                73           1            61    1    26      -0.3099295406E-04      54    1   26        -0.1235142270E-04      0.1552936385E-03
          0                74           1            46    1    36      -0.1134570386E-04      54    1   26        -0.1322131352E-04      0.1487750039E-03
          0                75           1            61    1    26      -0.2799323312E-04      54    1   26        -0.1124147677E-04      0.1414265318E-03
          0                76           1            61    1    21      -0.1038408378E-04      54    1   26        -0.1198199384E-04      0.1355060082E-03
          0                77           1            61    1    26      -0.2529400001E-04      54    1   26        -0.1023528093E-04      0.1288547294E-03
          0                78           1            61    1    21      -0.9510255381E-05      54    1   26        -0.1086513990E-04      0.1234754891E-03
          0                79           1            61    1    26      -0.2286615422E-04      54    1   26        -0.9322817291E-05      0.1174525714E-03
          0                80           1            61    1    21      -0.8712426142E-05      54    1   26        -0.9858117068E-05      0.1125630987E-03
                                                   Max.-Head-Change                         Max.-Flux-Residual
  Residual-Control   Outer-Iter.   Inner-Iter.     Column Row Layer    Maximum-Head-Change  Column Row Layer    Maximum-Flux-Residual          L2-NORM 
          0                81           1            61    1    26      -0.2068266107E-04      54    1   26        -0.8495016914E-05      0.1071064179E-03
          0                82           1            61    1    21      -0.7983677680E-05      54    1   26        -0.8949578259E-05      0.1026601147E-03

    ------------------------------------------------
       NWT REQUIRED           82 OUTER ITERATIONS 
       AND A TOTAL OF         88 INNER ITERATIONS.
    ------------------------------------------------

 OUTPUT CONTROL FOR STRESS PERIOD    2   TIME STEP   10
    PRINT BUDGET
    SAVE HEAD FOR ALL LAYERS
    SAVE DRAWDOWN FOR ALL LAYERS
    SAVE BUDGET
 UBDSV1 SAVING "         STORAGE" ON UNIT  40 AT TIME STEP 10, STRESS PERIOD   2
 UBDSV2 SAVING "   CONSTANT HEAD" ON UNIT  40 AT TIME STEP 10, STRESS PERIOD   2
 UBDSV1 SAVING "FLOW RIGHT FACE " ON UNIT  40 AT TIME STEP 10, STRESS PERIOD   2
 UBDSV1 SAVING "FLOW LOWER FACE " ON UNIT  40 AT TIME STEP 10, STRESS PERIOD   2
 UBDSV4 SAVING "          DRAINS" ON UNIT  40 AT TIME STEP 10, STRESS PERIOD   2
 UBDSV4 SAVING " HEAD DEP BOUNDS" ON UNIT  40 AT TIME STEP 10, STRESS PERIOD   2

 SAVING SATURATED THICKNESS AND FLOW TERMS ON UNIT  333 FOR MT3DMS
 BY THE LINK-MT3DMS PACKAGE V7 AT TIME STEP   10, STRESS PERIOD    2


 HEAD WILL BE SAVED ON UNIT    2 AT END OF TIME STEP   10, STRESS PERIOD    2

 DRAWDOWN WILL BE SAVED ON UNIT   13 AT END OF TIME STEP   10, STRESS PERIOD    2
1
  VOLUMETRIC BUDGET FOR ENTIRE MODEL AT END OF TIME STEP   10, STRESS PERIOD   2
  ------------------------------------------------------------------------------

     CUMULATIVE VOLUMES      L**3       RATES FOR THIS TIME STEP      L**3/T
     ------------------                 ------------------------

           IN:                                      IN:
           ---                                      ---
             STORAGE     =          66.8052               STORAGE     =       8.6993E-02
       CONSTANT HEAD     =           0.0000         CONSTANT HEAD     =           0.0000
              DRAINS     =           0.0000                DRAINS     =           0.0000
     HEAD DEP BOUNDS     =         415.4817       HEAD DEP BOUNDS     =           9.2849

                TOTAL IN =         482.2869                  TOTAL IN =           9.3718

          OUT:                                     OUT:
          ----                                     ----
             STORAGE     =       1.8438E-08               STORAGE     =       2.9545E-10
       CONSTANT HEAD     =           0.0000         CONSTANT HEAD     =           0.0000
              DRAINS     =         469.4992                DRAINS     =           9.3741
     HEAD DEP BOUNDS     =          12.8346       HEAD DEP BOUNDS     =           0.0000

               TOTAL OUT =         482.3339                 TOTAL OUT =           9.3741

                IN - OUT =      -4.6967E-02                  IN - OUT =      -2.2154E-03

     PERCENT DISCREPANCY =          -0.01         PERCENT DISCREPANCY =          -0.02






         TIME SUMMARY AT END OF TIME STEP   10 IN STRESS PERIOD    2
                    SECONDS     MINUTES      HOURS       DAYS        YEARS
                    -----------------------------------------------------------
   TIME STEP LENGTH  86400.      1440.0      24.000      1.0000     2.73785E-03
 STRESS PERIOD TIME 8.64000E+05  14400.      240.00      10.000     2.73785E-02
         TOTAL TIME 1.72800E+06  28800.      480.00      20.000     5.47570E-02
1
1
                            STRESS PERIOD NO.    3, LENGTH =   10.00000    
                            -----------------------------------------------

                              NUMBER OF TIME STEPS =    10

                               MULTIPLIER FOR DELT =     1.000

                            INITIAL TIME STEP SIZE =   1.000000    

 REUSING NON-PARAMETER DRAINS FROM LAST STRESS PERIOD

     75 DRAINS

 BOUND. NO. LAYER   ROW   COL     STAGE      CONDUCTANCE         IFACE           CONDFACT        CELLGRP         
 ----------------------------------------------------------------------------------------------------------------
      1      3      1     13       38.00          0.1000E+05       6.000           0.000          -1.000    
      2      4      1     13       38.00          0.1000E+05       6.000           0.000          -1.000    
      3      5      1     12       38.00          0.1000E+05       6.000           0.000          -1.000    
      4      6      1     12       38.00          0.1000E+05       6.000           0.000          -1.000    
      5      7      1     12       38.00          0.1000E+05       6.000           0.000          -1.000    
      6      8      1     11       38.00          0.1000E+05       6.000           0.000          -1.000    
      7      9      1     11       38.00          0.1000E+05       6.000           0.000          -1.000    
      8     10      1     11       38.00          0.1000E+05       6.000           0.000          -1.000    
      9     11      1     10       38.00          0.1000E+05       6.000           0.000          -1.000    
     10     12      1     10       38.00          0.1000E+05       6.000           0.000          -1.000    
     11     13      1     10       38.00          0.1000E+05       6.000           0.000          -1.000    
     12     14      1      9       38.00          0.1000E+05       6.000           0.000          -1.000    
     13     15      1      9       38.00          0.1000E+05       6.000           0.000          -1.000    
     14     16      1      9       38.00          0.1000E+05       6.000           0.000          -1.000    
     15     17      1      8       38.00          0.1000E+05       6.000           0.000          -1.000    
     16     18      1      8       38.00          0.1000E+05       6.000           0.000          -1.000    
     17     19      1      8       38.00          0.1000E+05       6.000           0.000          -1.000    
     18     20      1      7       38.00          0.1000E+05       6.000           0.000          -1.000    
     19     21      1      7       38.00          0.1000E+05       6.000           0.000          -1.000    
     20     22      1      7       38.00          0.1000E+05       6.000           0.000          -1.000    
     21     23      1      6       38.00          0.1000E+05       6.000           0.000          -1.000    
     22     24      1      6       38.00          0.1000E+05       6.000           0.000          -1.000    
     23     25      1      6       38.00          0.1000E+05       6.000           0.000          -1.000    
     24     26      1      5       38.00          0.1000E+05       6.000           0.000          -1.000    
     25     27      1      5       38.00          0.1000E+05       6.000           0.000          -1.000    
     26     28      1      5       38.00          0.1000E+05       6.000           0.000          -1.000    
     27     29      1      4       38.00          0.1000E+05       6.000           0.000          -1.000    
     28     30      1      4       38.00          0.1000E+05       6.000           0.000          -1.000    
     29     31      1      4       38.00          0.1000E+05       6.000           0.000          -1.000    
     30     32      1      3       38.00          0.1000E+05       6.000           0.000          -1.000    
     31     33      1      3       38.00          0.1000E+05       6.000           0.000          -1.000    
     32     34      1      3       38.00          0.1000E+05       6.000           0.000          -1.000    
     33     35      1      2       38.00          0.1000E+05       6.000           0.000          -1.000    
     34     36      1      2       38.00          0.1000E+05       6.000           0.000          -1.000    
     35     37      1      2       38.00          0.1000E+05       6.000           0.000          -1.000    
     36     38      1      1       38.00          0.1000E+05       6.000           0.000          -1.000    
     37     39      1      1       38.00          0.1000E+05       6.000           0.000          -1.000    
     38     40      1      1       38.00          0.1000E+05       6.000           0.000          -1.000    

     38 GHB CELLS
 
 SOLVING FOR HEAD 
                                                   Max.-Head-Change                         Max.-Flux-Residual
  Residual-Control   Outer-Iter.   Inner-Iter.     Column Row Layer    Maximum-Head-Change  Column Row Layer    Maximum-Flux-Residual          L2-NORM 
          0                 1          46            13    1     3       0.1684241966E+02      13    1    4         0.1684241981E+06      0.9967723888E+06
          0                 2          41            15    1     1       0.9080837952E+01      23    1   11        -0.3453456147E+02      0.1871857020E+03
          0                 3          16            15    1     6      -0.4500132412E+01      15    1    5        -0.6521050903E+02      0.2630865547E+03
          0                 4          16            19    1     5       0.1629376475E+01      18    1    6        -0.1365186004E+02      0.3587235916E+02
          0                 5          10            57    1    20      -0.5482491722E+00      18    1    4        -0.2826066207E+01      0.7005773831E+01
          0                 6           6            18    1     4      -0.3447383078E+00      18    1    4        -0.1083563396E+01      0.1629819879E+01
          0                 7           2            18    1     1      -0.3090890058E-01      19    1    5         0.1256939035E+00      0.1900815115E+00
          0                 8           1            18    1     1      -0.9631422257E-03      19    1    5         0.9068265320E-02      0.1262966706E-01
          0                 9           1            39    1    10       0.4807821660E-03      19    1    5         0.4643548006E-03      0.3763075223E-02
          0                10           1            39    1    14       0.4976486388E-03      37    1   19         0.4409161036E-03      0.3894044926E-02
                                                   Max.-Head-Change                         Max.-Flux-Residual
  Residual-Control   Outer-Iter.   Inner-Iter.     Column Row Layer    Maximum-Head-Change  Column Row Layer    Maximum-Flux-Residual          L2-NORM 
          0                11           1            39    1    11       0.4842218436E-03      37    1   19         0.4359691657E-03      0.3781846829E-02
          0                12           1            39    1    14       0.4407409142E-03      37    1   19         0.4202152061E-03      0.3589427637E-02
          0                13           1            39    1    11       0.4229695292E-03      37    1   19         0.3844238625E-03      0.3375804646E-02
          0                14           1            39    1    14       0.3818887765E-03      37    1   19         0.3686992338E-03      0.3205288016E-02
          0                15           1            39    1    11       0.3703443567E-03      37    1   21         0.3357033959E-03      0.3018034235E-02
          0                16           1            39    1    14       0.3234422060E-03      37    1   19         0.3247895895E-03      0.2879702306E-02
          0                17           1            39    1    11       0.3213142397E-03      37    1   21         0.2925403841E-03      0.2698062298E-02
          0                18           1            39    1    14       0.2722325248E-03      37    1   19         0.2853187481E-03      0.2593214422E-02
          0                19           1            39    1    13       0.2800893388E-03      37    1   21         0.2543853154E-03      0.2424014493E-02
          0                20           1            39    1    14       0.2348684895E-03      37    1   19         0.2519925079E-03      0.2350929150E-02
                                                   Max.-Head-Change                         Max.-Flux-Residual
  Residual-Control   Outer-Iter.   Inner-Iter.     Column Row Layer    Maximum-Head-Change  Column Row Layer    Maximum-Flux-Residual          L2-NORM 
          0                21           1            39    1    13       0.2498990898E-03      37    1   21         0.2248429100E-03      0.2202827133E-02
          0                22           1            39    1    14       0.2087841143E-03      38    1   22         0.2266201421E-03      0.2152556453E-02
          0                23           1            39    1    13       0.2264711517E-03      38    1   22         0.2028640432E-03      0.2021016283E-02
          0                24           1            39    1    14       0.1883244034E-03      38    1   22         0.2068880013E-03      0.1982480746E-02
          0                25           1            39    1    13       0.2066036988E-03      38    1   22         0.1847321742E-03      0.1862544343E-02
          0                26           1            39    1    14       0.1710445688E-03      38    1   22         0.1896026447E-03      0.1830695859E-02
          0                27           1            39    1    13       0.1891383132E-03      38    1   22         0.1688510660E-03      0.1720311234E-02
          0                28           1            39    1    14       0.1560411298E-03      38    1   22         0.1741285992E-03      0.1693084261E-02
          0                29           1            39    1    13       0.1735499918E-03      38    1   22         0.1547107305E-03      0.1591169887E-02
          0                30           1            39    1    14       0.1428385002E-03      38    1   22         0.1601553885E-03      0.1567417700E-02
                                                   Max.-Head-Change                         Max.-Flux-Residual
  Residual-Control   Outer-Iter.   Inner-Iter.     Column Row Layer    Maximum-Head-Change  Column Row Layer    Maximum-Flux-Residual          L2-NORM 
          0                31           1            39    1    13       0.1595080483E-03      38    1   22         0.1420201718E-03      0.1473196631E-02
          0                32           1            39    1    14       0.1311184787E-03      38    1   22         0.1474706257E-03      0.1452142074E-02
          0                33           1            39    1    13       0.1467761621E-03      38    1   22         0.1305715726E-03      0.1364994729E-02
          0                34           1            39    1    14       0.1206467736E-03      38    1   22         0.1359108869E-03      0.1346066524E-02
          0                35           1            39    1    13       0.1351767520E-03      38    1   22         0.1202035198E-03      0.1265475274E-02
          0                36           1            39    1    14       0.1112418361E-03      38    1   22         0.1253450275E-03      0.1248237194E-02
          0                37           1            39    1    13       0.1245717980E-03      38    1   22         0.1107852342E-03      0.1173752854E-02
          0                38           1            39    1    14       0.1027580829E-03      38    1   22         0.1156651313E-03      0.1157865711E-02
          0                39           1            39    1    13       0.1148509425E-03      38    1   22         0.1022078637E-03      0.1089085390E-02
          0                40           1            39    1    14       0.9507595571E-04      38    1   22         0.1067806727E-03      0.1074283962E-02
                                                   Max.-Head-Change                         Max.-Flux-Residual
  Residual-Control   Outer-Iter.   Inner-Iter.     Column Row Layer    Maximum-Head-Change  Column Row Layer    Maximum-Flux-Residual          L2-NORM 
          0                41           1            39    1    13       0.1059236844E-03      38    1   22         0.9437913278E-04      0.1010836654E-02
          0                42           1            39    1    14       0.8809565440E-04      38    1   22         0.9861449212E-04      0.9969141374E-03
          0                43           1            39    1    13       0.9771411749E-04      38    1   22         0.8721981845E-04      0.9384517533E-03
          0                44           1            39    1    14       0.8173293532E-04      38    1   22         0.9109992865E-04      0.9252483109E-03
          0                45           1            39    1    13       0.9015729825E-04      38    1   22         0.8066128186E-04      0.8714404224E-03
          0                46           1            39    1    14       0.7591613806E-04      38    1   22         0.8417871592E-04      0.8588341736E-03
          0                47           1            39    1    10       0.8319672746E-04      38    1   22         0.7464365089E-04      0.8093651982E-03
          0                48           1            39    1    14       0.7058396948E-04      38    1   22         0.7779941134E-04      0.7972648374E-03
          0                49           1            39    1    10       0.7678245047E-04      38    1   22         0.6911442230E-04      0.7518327780E-03
          0                50           1            39    1    14       0.6568378589E-04      38    1   22         0.7191621069E-04      0.7401714113E-03
                                                   Max.-Head-Change                         Max.-Flux-Residual
  Residual-Control   Outer-Iter.   Inner-Iter.     Column Row Layer    Maximum-Head-Change  Column Row Layer    Maximum-Flux-Residual          L2-NORM 
          0                51           1            39    1    10       0.7086983446E-04      38    1   22         0.6402735303E-04      0.6984874998E-03
          0                52           1            39    1    14       0.6117020683E-04      38    1   22         0.6648803532E-04      0.6872174567E-03
          0                53           1            39    1    10       0.6541862479E-04      38    1   22         0.5934155445E-04      0.6490062661E-03
          0                54           1            39    1    14       0.5700398607E-04      38    1   22         0.6147782926E-04      0.6380947710E-03
          0                55           1            39    1    10       0.6039224237E-04      38    1   22         0.5502074700E-04      0.6030945165E-03
          0                56           1            39    1    14       0.5315106826E-04      38    1   22         0.5685200040E-04      0.5925200831E-03
          0                57           1            39    1    10       0.5575726898E-04      38    1   22         0.5103263524E-04      0.5604829327E-03
          0                58           1            39    1    14       0.4958180078E-04      38    1   22         0.5257998066E-04      0.5502324155E-03
          0                59           1            39    1    10       0.5148305677E-04      38    1   22         0.4734837981E-04      0.5209247092E-03
          0                60           1            39    1    14       0.4627026008E-04      38    1   22         0.4863386698E-04      0.5109909058E-03
                                                   Max.-Head-Change                         Max.-Flux-Residual
  Residual-Control   Outer-Iter.   Inner-Iter.     Column Row Layer    Maximum-Head-Change  Column Row Layer    Maximum-Flux-Residual          L2-NORM 
          0                61           1            39    1    10       0.4754142785E-04      38    1   22         0.4394214599E-04      0.4841932270E-03
          0                62           1            39    1    14       0.4319370292E-04      38    1   22         0.4498813027E-04      0.4745729952E-03
          0                63           1            39    1    10       0.4390642251E-04      38    1   22         0.4079072889E-04      0.4500800900E-03
          0                64           1            39    1    14       0.4033208525E-04      38    1   22         0.4161936499E-04      0.4407728384E-03
          0                65           1            39    1    10       0.4055410526E-04      38    1   22         0.3787322291E-04      0.4183933944E-03
          0                66           1            39    1    14       0.3766765982E-04      38    1   22         0.3850608473E-04      0.4093999420E-03
          0                67           1            39    1    10       0.3746239508E-04      38    1   22         0.3517074254E-04      0.3889562161E-03
          0                68           1            39    1    14       0.3518464710E-04      38    1   22         0.3562854167E-04      0.3802779451E-03
          0                69           1            39    1    10       0.3461091149E-04      38    1   22         0.3266618452E-04      0.3616052883E-03
          0                70           1            39    1    14       0.3286895138E-04      38    1   22         0.3296856906E-04      0.3532435125E-03
                                                   Max.-Head-Change                         Max.-Flux-Residual
  Residual-Control   Outer-Iter.   Inner-Iter.     Column Row Layer    Maximum-Head-Change  Column Row Layer    Maximum-Flux-Residual          L2-NORM 
          0                71           1            39    1    10       0.3198084810E-04      38    1   22         0.3034402187E-04      0.3361898151E-03
          0                72           1            39    1    14       0.3070792219E-04      38    1   22         0.3050944389E-04      0.3281453441E-03
          0                73           1            39    1    10       0.2955484953E-04      38    1   22         0.2819012516E-04      0.3125704128E-03
          0                74           1            39    1    14       0.2869015632E-04      38    1   22         0.2823576381E-04      0.3048432630E-03
          0                75           1            39    1    10       0.2731690746E-04      38    1   22         0.2619160949E-04      0.2906181617E-03
          0                76           1            39    1    14       0.2680533121E-04      38    1   22         0.2613333569E-04      0.2832073805E-03
          0                77           1            39    1    10       0.2525225365E-04      38    1   22         0.2433670269E-04      0.2702137496E-03
          0                78           1            39    1    14       0.2504406038E-04      38    1   22         0.2418907562E-04      0.2631173233E-03
          0                79           1            39    1    10       0.2334727817E-04      38    1   22         0.2261462606E-04      0.2512466940E-03
          0                80           1            39    1    14       0.2339778017E-04      38    1   22         0.2239092231E-04      0.2444615420E-03
                                                   Max.-Head-Change                         Max.-Flux-Residual
  Residual-Control   Outer-Iter.   Inner-Iter.     Column Row Layer    Maximum-Head-Change  Column Row Layer    Maximum-Flux-Residual          L2-NORM 
          0                81           1            39    1    10       0.2158942928E-04      38    1   22         0.2101549634E-04      0.2336146415E-03
          0                82           1            39    1    14       0.2185864895E-04      38    1   22         0.2072774902E-04      0.2271366331E-03
          0                83           1            39    1    10       0.1996714284E-04      38    1   22         0.1953023732E-04      0.2172227344E-03
          0                84           1            39    1    14       0.2041946024E-04      38    1   22         0.1918929243E-04      0.2110467488E-03
          0                85           1            39    1    10       0.1846976580E-04      38    1   22         0.1815050032E-04      0.2019830184E-03
          0                86           1            39    1    14       0.1907357495E-04      38    1   22         0.1776608340E-04      0.1961030376E-03
          0                87           1            39    1    10       0.1708748145E-04      38    1   22         0.1686859821E-04      0.1878139214E-03
          0                88           1            39    1    14       0.1781485860E-04      38    1   22         0.1644938149E-04      0.1822231156E-03
          0                89           1            39    1    10       0.1581125290E-04      38    1   22         0.1567744278E-04      0.1746397615E-03
          0                90           1            39    1    14       0.1663762741E-04      38    1   22         0.1523112167E-04      0.1693306019E-03
                                                   Max.-Head-Change                         Max.-Flux-Residual
  Residual-Control   Outer-Iter.   Inner-Iter.     Column Row Layer    Maximum-Head-Change  Column Row Layer    Maximum-Flux-Residual          L2-NORM 
          0                91           1            39    1    10       0.1463275788E-04      38    1   22         0.1457049163E-04      0.1623903001E-03
          0                92           1            39    1    14       0.1553660798E-04      38    1   22         0.1410385730E-04      0.1573546667E-03
          0                93           1            39    1    10       0.1354433438E-04      38    1   22         0.1354170141E-04      0.1510003395E-03
          0                94           1            39    1    14       0.1450689319E-04      38    1   22         0.1306071442E-04      0.1462296242E-03
          0                95           1            39    1    10       0.1253892858E-04      38    1   22         0.1258548255E-04      0.1404093399E-03
          0                96           1            39    1    14       0.1354391992E-04      38    1   22         0.1209534508E-04      0.1358945527E-03
          0                97           1            39    1    10       0.1161004436E-04      38    1   22         0.1169666604E-04      0.1305610877E-03
          0                98           1            39    1    14       0.1264342283E-04      38    1   22         0.1120188605E-04      0.1262929383E-03
          0                99           1            39    1    10       0.1075170833E-04      38    1   22         0.1087046141E-04      0.1214033580E-03
          0               100           1            39    1    14       0.1180142705E-04      38    1   22         0.1037492459E-04      0.1173723666E-03
                                                   Max.-Head-Change                         Max.-Flux-Residual
  Residual-Control   Outer-Iter.   Inner-Iter.     Column Row Layer    Maximum-Head-Change  Column Row Layer    Maximum-Flux-Residual          L2-NORM 
          0               101           1            39    1    10       0.9958417988E-05      38    1   22         0.1010243361E-04      0.1128876426E-03
          0               102           1            39    1    14       0.1101420881E-04      38    1   22         0.9609459170E-05      0.1090842017E-03
          0               103           1            39    1    10       0.9225111804E-05      38    1   22         0.9388467333E-05      0.1049688597E-03
          0               104           1            39    1    14       0.1027828878E-04      38    1   22         0.8900870597E-05      0.1013833257E-03

    ------------------------------------------------
       NWT REQUIRED          104 OUTER ITERATIONS 
       AND A TOTAL OF        234 INNER ITERATIONS.
    ------------------------------------------------

 OUTPUT CONTROL FOR STRESS PERIOD    3   TIME STEP    1
    PRINT BUDGET
    SAVE HEAD FOR ALL LAYERS
    SAVE DRAWDOWN FOR ALL LAYERS
    SAVE BUDGET
 UBDSV1 SAVING "         STORAGE" ON UNIT  40 AT TIME STEP  1, STRESS PERIOD   3
 UBDSV2 SAVING "   CONSTANT HEAD" ON UNIT  40 AT TIME STEP  1, STRESS PERIOD   3
 UBDSV1 SAVING "FLOW RIGHT FACE " ON UNIT  40 AT TIME STEP  1, STRESS PERIOD   3
 UBDSV1 SAVING "FLOW LOWER FACE " ON UNIT  40 AT TIME STEP  1, STRESS PERIOD   3
 UBDSV4 SAVING "          DRAINS" ON UNIT  40 AT TIME STEP  1, STRESS PERIOD   3
 UBDSV4 SAVING " HEAD DEP BOUNDS" ON UNIT  40 AT TIME STEP  1, STRESS PERIOD   3

 SAVING SATURATED THICKNESS AND FLOW TERMS ON UNIT  333 FOR MT3DMS
 BY THE LINK-MT3DMS PACKAGE V7 AT TIME STEP    1, STRESS PERIOD    3


 HEAD WILL BE SAVED ON UNIT    2 AT END OF TIME STEP    1, STRESS PERIOD    3

 DRAWDOWN WILL BE SAVED ON UNIT   13 AT END OF TIME STEP    1, STRESS PERIOD    3
1
  VOLUMETRIC BUDGET FOR ENTIRE MODEL AT END OF TIME STEP    1, STRESS PERIOD   3
  ------------------------------------------------------------------------------

     CUMULATIVE VOLUMES      L**3       RATES FOR THIS TIME STEP      L**3/T
     ------------------                 ------------------------

           IN:                                      IN:
           ---                                      ---
             STORAGE     =          66.8052               STORAGE     =           0.0000
       CONSTANT HEAD     =           0.0000         CONSTANT HEAD     =           0.0000
              DRAINS     =           0.0000                DRAINS     =           0.0000
     HEAD DEP BOUNDS     =         477.4996       HEAD DEP BOUNDS     =          62.0179

                TOTAL IN =         544.3048                  TOTAL IN =          62.0179

          OUT:                                     OUT:
          ----                                     ----
             STORAGE     =          45.4319               STORAGE     =          45.4319
       CONSTANT HEAD     =           0.0000         CONSTANT HEAD     =           0.0000
              DRAINS     =         486.0829                DRAINS     =          16.5837
     HEAD DEP BOUNDS     =          12.8346       HEAD DEP BOUNDS     =           0.0000

               TOTAL OUT =         544.3495                 TOTAL OUT =          62.0156

                IN - OUT =      -4.4678E-02                  IN - OUT =       2.3079E-03

     PERCENT DISCREPANCY =          -0.01         PERCENT DISCREPANCY =           0.00






         TIME SUMMARY AT END OF TIME STEP    1 IN STRESS PERIOD    3
                    SECONDS     MINUTES      HOURS       DAYS        YEARS
                    -----------------------------------------------------------
   TIME STEP LENGTH  86400.      1440.0      24.000      1.0000     2.73785E-03
 STRESS PERIOD TIME  86400.      1440.0      24.000      1.0000     2.73785E-03
         TOTAL TIME 1.81440E+06  30240.      504.00      21.000     5.74949E-02
1
 
 SOLVING FOR HEAD 
                                                   Max.-Head-Change                         Max.-Flux-Residual
  Residual-Control   Outer-Iter.   Inner-Iter.     Column Row Layer    Maximum-Head-Change  Column Row Layer    Maximum-Flux-Residual          L2-NORM 
          0                 1          34            39    1    10       0.5241594231E+01      13    1    3         0.1225106090E+00      0.2044496819E+01
          0                 2          26            39    1    14      -0.2169627741E+01      39    1   11        -0.2353241760E+02      0.8988370932E+02
          0                 3          16            25    1     5      -0.6498604860E+00      39    1   10        -0.3286527980E+01      0.1597449566E+02
          0                 4           6            39    1    10      -0.1073916827E+01      39    1   10        -0.2724056376E+01      0.4160075253E+01
          0                 5           5            39    1    10      -0.1778201341E+00      39    1   11        -0.6806292810E+00      0.9614307146E+00
          0                 6           2            39    1    10      -0.1738412181E-01      40    1   11         0.7382729327E-01      0.1311434576E+00
          0                 7           2            39    1    10      -0.1087375901E-02      39    1   11        -0.3841612872E-02      0.7681763763E-02
          0                 8           1            47    1    14      -0.1407414385E-03      48    1   26        -0.4590391536E-03      0.2272689769E-02
          0                 9           1            47    1    14      -0.3442400351E-03      48    1   26        -0.1335786990E-03      0.1555723431E-02
          0                10           1            47    1    39      -0.1675917215E-03      49    1   26         0.1714570635E-03      0.1551179421E-02
                                                   Max.-Head-Change                         Max.-Flux-Residual
  Residual-Control   Outer-Iter.   Inner-Iter.     Column Row Layer    Maximum-Head-Change  Column Row Layer    Maximum-Flux-Residual          L2-NORM 
          0                11           1            47    1    14      -0.1717411087E-03      48    1   26        -0.1252532197E-03      0.1354469819E-02
          0                12           1            47    1    14      -0.1355294089E-03      44    1   22        -0.1235816989E-03      0.1286580914E-02
          0                13           1            47    1    14      -0.1562540706E-03      44    1   22        -0.1026510856E-03      0.1195355291E-02
          0                14           1            47    1    14      -0.1251998154E-03      44    1   22        -0.1113639559E-03      0.1157738762E-02
          0                15           1            47    1    14      -0.1365875379E-03      44    1   22        -0.9243130347E-04      0.1076805927E-02
          0                16           1            47    1    14      -0.1162849908E-03      44    1   22        -0.9930271415E-04      0.1041895101E-02
          0                17           1            47    1    14      -0.1205055551E-03      44    1   22        -0.8394287732E-04      0.9750897817E-03
          0                18           1            47    1    14      -0.1072234849E-03      44    1   22        -0.8879025171E-04      0.9411962842E-03
          0                19           1            47    1    14      -0.1074168549E-03      44    1   22        -0.7646214169E-04      0.8852192158E-03
          0                20           1            47    1    14      -0.9822894826E-04      44    1   22        -0.7964308361E-04      0.8527520474E-03
                                                   Max.-Head-Change                         Max.-Flux-Residual
  Residual-Control   Outer-Iter.   Inner-Iter.     Column Row Layer    Maximum-Head-Change  Column Row Layer    Maximum-Flux-Residual          L2-NORM 
          0                21           1            47    1    14      -0.9637938004E-04      44    1   22        -0.6975218611E-04      0.8048852671E-03
          0                22           1            47    1    14      -0.8957032903E-04      44    1   22        -0.7160947155E-04      0.7742206625E-03
          0                23           1            47    1    14      -0.8545720625E-04      44    1   22        -0.6369102078E-04      0.7328464652E-03
          0                24           1            47    1    14      -0.8122723186E-04      44    1   22        -0.6430294701E-04      0.7031580682E-03
          0                25           1            47    1    14      -0.7821525257E-04      44    1   22        -0.5808454500E-04      0.6675305265E-03
          0                26           1            47    1    14      -0.7326062866E-04      44    1   22        -0.5813730075E-04      0.6406950230E-03
          0                27           1            47    1    14      -0.7069863701E-04      44    1   22        -0.5295975342E-04      0.6079994267E-03
          0                28           1            47    1    14      -0.6633310078E-04      44    1   22        -0.5248740911E-04      0.5834847875E-03
          0                29           1            47    1    14      -0.6414213367E-04      44    1   22        -0.4836513290E-04      0.5543898152E-03
          0                30           1            47    1    14      -0.6021018839E-04      44    1   22        -0.4750494566E-04      0.5319339848E-03
                                                   Max.-Head-Change                         Max.-Flux-Residual
  Residual-Control   Outer-Iter.   Inner-Iter.     Column Row Layer    Maximum-Head-Change  Column Row Layer    Maximum-Flux-Residual          L2-NORM 
          0                31           1            47    1    14      -0.5831985442E-04      44    1   22        -0.4420405116E-04      0.5059039905E-03
          0                32           1            47    1    14      -0.5473899500E-04      44    1   22        -0.4307946779E-04      0.4852982955E-03
          0                33           1            47    1    14      -0.5311151469E-04      44    1   22        -0.4041373529E-04      0.4619029355E-03
          0                34           1            47    1    14      -0.4982777340E-04      44    1   22        -0.3913022749E-04      0.4430013214E-03
          0                35           1            47    1    14      -0.4842652899E-04      44    1   22        -0.3695229708E-04      0.4218891809E-03
          0                36           1            47    1    14      -0.4540409446E-04      44    1   22        -0.3559153714E-04      0.4045621859E-03
          0                37           1            47    1    14      -0.4419253223E-04      44    1   22        -0.3378714695E-04      0.3854469833E-03
          0                38           1            47    1    14      -0.4140754090E-04      44    1   22        -0.3240873224E-04      0.3695726140E-03
          0                39           1            47    1    14      -0.4035216557E-04      44    1   22        -0.3089136595E-04      0.3522208772E-03
          0                40           1            47    1    14      -0.3778749475E-04      44    1   22        -0.2953648936E-04      0.3376835557E-03
                                                   Max.-Head-Change                         Max.-Flux-Residual
  Residual-Control   Outer-Iter.   Inner-Iter.     Column Row Layer    Maximum-Head-Change  Column Row Layer    Maximum-Flux-Residual          L2-NORM 
          0                41           1            47    1    14      -0.3685974376E-04      44    1   22        -0.2824173902E-04      0.3219026630E-03
          0                42           1            47    1    14      -0.3450142835E-04      44    1   22        -0.2693727174E-04      0.3085936467E-03
          0                43           1            47    1    14      -0.3367811751E-04      44    1   22        -0.2581758582E-04      0.2942218545E-03
          0                44           1            47    1    14      -0.3151335899E-04      44    1   22        -0.2457981969E-04      0.2820396656E-03
          0                45           1            47    1    14      -0.3077624339E-04      44    1   22        -0.2360011359E-04      0.2689385971E-03
          0                46           1            47    1    14      -0.2879253812E-04      44    1   22        -0.2243783183E-04      0.2577891711E-03
          0                47           1            47    1    14      -0.2812751337E-04      44    1   22        -0.2157207780E-04      0.2458384544E-03
          0                48           1            47    1    14      -0.2631240847E-04      44    1   22        -0.2048890752E-04      0.2356350206E-03
          0                49           1            47    1    14      -0.2570864924E-04      44    1   22        -0.1971759582E-04      0.2247285257E-03
          0                50           1            47    1    14      -0.2404980142E-04      44    1   22        -0.1871373502E-04      0.2153913080E-03
                                                   Max.-Head-Change                         Max.-Flux-Residual
  Residual-Control   Outer-Iter.   Inner-Iter.     Column Row Layer    Maximum-Head-Change  Column Row Layer    Maximum-Flux-Residual          L2-NORM 
          0                51           1            47    1    14      -0.2349897952E-04      44    1   22        -0.1802203627E-04      0.2054345008E-03
          0                52           1            47    1    14      -0.2198432627E-04      44    1   22        -0.1709547894E-04      0.1968903071E-03
          0                53           1            47    1    14      -0.2147997073E-04      44    1   22        -0.1647193409E-04      0.1877983584E-03
          0                54           1            47    1    14      -0.2009789366E-04      44    1   22        -0.1561932339E-04      0.1799801170E-03
          0                55           1            47    1    14      -0.1963488978E-04      44    1   22        -0.1505491559E-04      0.1716764973E-03
          0                56           1            47    1    14      -0.1837435877E-04      44    1   22        -0.1427212493E-04      0.1645227877E-03
          0                57           1            47    1    14      -0.1794857499E-04      44    1   22        -0.1375962410E-04      0.1569382071E-03
          0                58           1            47    1    14      -0.1679922693E-04      44    1   22        -0.1304215112E-04      0.1503927958E-03
          0                59           1            47    1    14      -0.1640724583E-04      44    1   22        -0.1257564844E-04      0.1434643499E-03
          0                60           1            47    1    14      -0.1535943618E-04      44    1   22        -0.1191887367E-04      0.1374757601E-03
                                                   Max.-Head-Change                         Max.-Flux-Residual
  Residual-Control   Outer-Iter.   Inner-Iter.     Column Row Layer    Maximum-Head-Change  Column Row Layer    Maximum-Flux-Residual          L2-NORM 
          0                61           1            47    1    14      -0.1499836047E-04      44    1   22        -0.1149345263E-04      0.1311462441E-03
          0                62           1            47    1    14      -0.1404316671E-04      44    1   22        -0.1089280693E-04      0.1256673491E-03
          0                63           1            47    1    14      -0.1371048800E-04      44    1   22        -0.1050430751E-04      0.1198846707E-03
          0                64           1            47    1    14      -0.1283970449E-04      44    1   22        -0.9955377834E-05      0.1148723280E-03
          0                65           1            47    1    14      -0.1253319819E-04      44    1   22        -0.9600226747E-05      0.1095890109E-03
          0                66           1            47    1    14      -0.1173931064E-04      44    1   22        -0.9098817088E-05      0.1050037161E-03
          0                67           1            47    1    14      -0.1145697338E-04      44    1   22        -0.8773905108E-05      0.1001764662E-03

    ------------------------------------------------
       NWT REQUIRED           67 OUTER ITERATIONS 
       AND A TOTAL OF        151 INNER ITERATIONS.
    ------------------------------------------------

 OUTPUT CONTROL FOR STRESS PERIOD    3   TIME STEP    2
    PRINT BUDGET
    SAVE HEAD FOR ALL LAYERS
    SAVE DRAWDOWN FOR ALL LAYERS
    SAVE BUDGET
 UBDSV1 SAVING "         STORAGE" ON UNIT  40 AT TIME STEP  2, STRESS PERIOD   3
 UBDSV2 SAVING "   CONSTANT HEAD" ON UNIT  40 AT TIME STEP  2, STRESS PERIOD   3
 UBDSV1 SAVING "FLOW RIGHT FACE " ON UNIT  40 AT TIME STEP  2, STRESS PERIOD   3
 UBDSV1 SAVING "FLOW LOWER FACE " ON UNIT  40 AT TIME STEP  2, STRESS PERIOD   3
 UBDSV4 SAVING "          DRAINS" ON UNIT  40 AT TIME STEP  2, STRESS PERIOD   3
 UBDSV4 SAVING " HEAD DEP BOUNDS" ON UNIT  40 AT TIME STEP  2, STRESS PERIOD   3

 SAVING SATURATED THICKNESS AND FLOW TERMS ON UNIT  333 FOR MT3DMS
 BY THE LINK-MT3DMS PACKAGE V7 AT TIME STEP    2, STRESS PERIOD    3


 HEAD WILL BE SAVED ON UNIT    2 AT END OF TIME STEP    2, STRESS PERIOD    3

 DRAWDOWN WILL BE SAVED ON UNIT   13 AT END OF TIME STEP    2, STRESS PERIOD    3
1
  VOLUMETRIC BUDGET FOR ENTIRE MODEL AT END OF TIME STEP    2, STRESS PERIOD   3
  ------------------------------------------------------------------------------

     CUMULATIVE VOLUMES      L**3       RATES FOR THIS TIME STEP      L**3/T
     ------------------                 ------------------------

           IN:                                      IN:
           ---                                      ---
             STORAGE     =          66.8052               STORAGE     =           0.0000
       CONSTANT HEAD     =           0.0000         CONSTANT HEAD     =           0.0000
              DRAINS     =           0.0000                DRAINS     =           0.0000
     HEAD DEP BOUNDS     =         516.2537       HEAD DEP BOUNDS     =          38.7540

                TOTAL IN =         583.0588                  TOTAL IN =          38.7540

          OUT:                                     OUT:
          ----                                     ----
             STORAGE     =          56.2418               STORAGE     =          10.8099
       CONSTANT HEAD     =           0.0000         CONSTANT HEAD     =           0.0000
              DRAINS     =         514.0295                DRAINS     =          27.9465
     HEAD DEP BOUNDS     =          12.8346       HEAD DEP BOUNDS     =           0.0000

               TOTAL OUT =         583.1060                 TOTAL OUT =          38.7564

                IN - OUT =      -4.7119E-02                  IN - OUT =      -2.4033E-03

     PERCENT DISCREPANCY =          -0.01         PERCENT DISCREPANCY =          -0.01






         TIME SUMMARY AT END OF TIME STEP    2 IN STRESS PERIOD    3
                    SECONDS     MINUTES      HOURS       DAYS        YEARS
                    -----------------------------------------------------------
   TIME STEP LENGTH  86400.      1440.0      24.000      1.0000     2.73785E-03
 STRESS PERIOD TIME 1.72800E+05  2880.0      48.000      2.0000     5.47570E-03
         TOTAL TIME 1.90080E+06  31680.      528.00      22.000     6.02327E-02
1
 
 SOLVING FOR HEAD 
                                                   Max.-Head-Change                         Max.-Flux-Residual
  Residual-Control   Outer-Iter.   Inner-Iter.     Column Row Layer    Maximum-Head-Change  Column Row Layer    Maximum-Flux-Residual          L2-NORM 
          0                 1          21            47    1    14       0.1481118738E+01      45    1   15         0.1204429749E+00      0.9064511594E+00
          0                 2          16            47    1    14      -0.6293281529E+00      47    1   14        -0.5536812410E+01      0.1032968021E+02
          0                 3           6            40    1    11       0.1975384159E+00      40    1   11         0.2089158063E+01      0.2969598902E+01
          0                 4           2            40    1    10       0.2463064720E-01      40    1   11         0.2531511663E+00      0.3607457149E+00
          0                 5           2            40    1    11       0.1544053706E-02      40    1   11         0.1598539811E-01      0.2196048998E-01
          0                 6           1            32    1     7      -0.1236037394E-03      40    1   11         0.7967737132E-03      0.1720008997E-02
          0                 7           1            28    1     6      -0.2977798712E-03      40    1   12        -0.9436271148E-04      0.1045181352E-02
          0                 8           1            28    1     5      -0.6163404082E-04      38    1   14        -0.1744200819E-03      0.8036125839E-03
          0                 9           1            28    1     6      -0.1510421932E-03      35    1   13        -0.5977479259E-04      0.6621529312E-03
          0                10           1            38    1    10      -0.4660048311E-04      38    1   14        -0.9578428376E-04      0.5838185187E-03
                                                   Max.-Head-Change                         Max.-Flux-Residual
  Residual-Control   Outer-Iter.   Inner-Iter.     Column Row Layer    Maximum-Head-Change  Column Row Layer    Maximum-Flux-Residual          L2-NORM 
          0                11           1            34    1     7      -0.7533112107E-04      35    1   13        -0.4695526303E-04      0.5031941881E-03
          0                12           1            38    1    10      -0.4397709929E-04      38    1   14        -0.5646198184E-04      0.4664040301E-03
          0                13           1            34    1     9      -0.4749717446E-04      35    1   13        -0.4093539758E-04      0.4228761068E-03
          0                14           1            38    1    10      -0.4027097893E-04      38    1   14        -0.3856719201E-04      0.3946205311E-03
          0                15           1            34    1     9      -0.3610606960E-04      35    1   13        -0.3489315793E-04      0.3682817409E-03
          0                16           1            38    1     9      -0.3519796335E-04      37    1   25        -0.3053786736E-04      0.3439558290E-03
          0                17           1            34    1     9      -0.2969501062E-04      37    1   17        -0.3065796471E-04      0.3247956131E-03
          0                18           1            39    1    10      -0.3057885292E-04      37    1   25        -0.2801747723E-04      0.3041355634E-03
          0                19           1            27    1    37      -0.2552051570E-04      37    1   25        -0.2719200745E-04      0.2886747471E-03
          0                20           1            39    1    10      -0.2671083840E-04      37    1   25        -0.2555589128E-04      0.2711370726E-03
                                                   Max.-Head-Change                         Max.-Flux-Residual
  Residual-Control   Outer-Iter.   Inner-Iter.     Column Row Layer    Maximum-Head-Change  Column Row Layer    Maximum-Flux-Residual          L2-NORM 
          0                21           1            29    1    37      -0.2276629931E-04      37    1   25        -0.2480357125E-04      0.2580759792E-03
          0                22           1            30    1    36      -0.2354553606E-04      37    1   25        -0.2320356219E-04      0.2429655308E-03
          0                23           1            30    1    40      -0.2044261108E-04      37    1   25        -0.2252479572E-04      0.2316726203E-03
          0                24           1            31    1    37      -0.2120836852E-04      37    1   25        -0.2101076376E-04      0.2184695553E-03
          0                25           1            31    1    39      -0.1839477312E-04      37    1   25        -0.2040445236E-04      0.2085566460E-03
          0                26           1            32    1    38      -0.1911499844E-04      37    1   25        -0.1899794142E-04      0.1969037845E-03
          0                27           1            32    1    40      -0.1659832118E-04      37    1   25        -0.1845807651E-04      0.1881088891E-03
          0                28           1            32    1    38      -0.1723942739E-04      37    1   25        -0.1716658630E-04      0.1777530587E-03
          0                29           1            34    1    38      -0.1500554176E-04      37    1   25        -0.1668518365E-04      0.1698899407E-03
          0                30           1            34    1    40      -0.1557400342E-04      37    1   25        -0.1550853409E-04      0.1606435230E-03
                                                   Max.-Head-Change                         Max.-Flux-Residual
  Residual-Control   Outer-Iter.   Inner-Iter.     Column Row Layer    Maximum-Head-Change  Column Row Layer    Maximum-Flux-Residual          L2-NORM 
          0                31           1            34    1    38      -0.1359416204E-04      37    1   25        -0.1507745122E-04      0.1535741367E-03
          0                32           1            34    1    40      -0.1407952288E-04      37    1   25        -0.1401128441E-04      0.1452921904E-03
          0                33           1            35    1    39      -0.1232317030E-04      37    1   25        -0.1362309655E-04      0.1389104811E-03
          0                34           1            34    1    40      -0.1272007069E-04      37    1   25        -0.1266088492E-04      0.1314768799E-03
          0                35           1            35    1    39      -0.1117717338E-04      37    1   25        -0.1230920509E-04      0.1256987860E-03
          0                36           1            35    1    39      -0.1149845364E-04      37    1   25        -0.1144343167E-04      0.1190176192E-03
          0                37           1            35    1    39      -0.1013727785E-04      37    1   25        -0.1112293648E-04      0.1137746571E-03
          0                38           1            35    1    39      -0.1039040769E-04      37    1   25        -0.1034578656E-04      0.1077647528E-03
          0                39           1            36    1    38      -0.9198920030E-05      37    1   25        -0.1005211374E-04      0.1029997905E-03

    ------------------------------------------------
       NWT REQUIRED           39 OUTER ITERATIONS 
       AND A TOTAL OF         81 INNER ITERATIONS.
    ------------------------------------------------

 OUTPUT CONTROL FOR STRESS PERIOD    3   TIME STEP    3
    PRINT BUDGET
    SAVE HEAD FOR ALL LAYERS
    SAVE DRAWDOWN FOR ALL LAYERS
    SAVE BUDGET
 UBDSV1 SAVING "         STORAGE" ON UNIT  40 AT TIME STEP  3, STRESS PERIOD   3
 UBDSV2 SAVING "   CONSTANT HEAD" ON UNIT  40 AT TIME STEP  3, STRESS PERIOD   3
 UBDSV1 SAVING "FLOW RIGHT FACE " ON UNIT  40 AT TIME STEP  3, STRESS PERIOD   3
 UBDSV1 SAVING "FLOW LOWER FACE " ON UNIT  40 AT TIME STEP  3, STRESS PERIOD   3
 UBDSV4 SAVING "          DRAINS" ON UNIT  40 AT TIME STEP  3, STRESS PERIOD   3
 UBDSV4 SAVING " HEAD DEP BOUNDS" ON UNIT  40 AT TIME STEP  3, STRESS PERIOD   3

 SAVING SATURATED THICKNESS AND FLOW TERMS ON UNIT  333 FOR MT3DMS
 BY THE LINK-MT3DMS PACKAGE V7 AT TIME STEP    3, STRESS PERIOD    3


 HEAD WILL BE SAVED ON UNIT    2 AT END OF TIME STEP    3, STRESS PERIOD    3

 DRAWDOWN WILL BE SAVED ON UNIT   13 AT END OF TIME STEP    3, STRESS PERIOD    3
1
  VOLUMETRIC BUDGET FOR ENTIRE MODEL AT END OF TIME STEP    3, STRESS PERIOD   3
  ------------------------------------------------------------------------------

     CUMULATIVE VOLUMES      L**3       RATES FOR THIS TIME STEP      L**3/T
     ------------------                 ------------------------

           IN:                                      IN:
           ---                                      ---
             STORAGE     =          66.8052               STORAGE     =           0.0000
       CONSTANT HEAD     =           0.0000         CONSTANT HEAD     =           0.0000
              DRAINS     =           0.0000                DRAINS     =           0.0000
     HEAD DEP BOUNDS     =         552.0727       HEAD DEP BOUNDS     =          35.8190

                TOTAL IN =         618.8779                  TOTAL IN =          35.8190

          OUT:                                     OUT:
          ----                                     ----
             STORAGE     =          58.5865               STORAGE     =           2.3447
       CONSTANT HEAD     =           0.0000         CONSTANT HEAD     =           0.0000
              DRAINS     =         547.5063                DRAINS     =          33.4769
     HEAD DEP BOUNDS     =          12.8346       HEAD DEP BOUNDS     =           0.0000

               TOTAL OUT =         618.9275                 TOTAL OUT =          35.8215

                IN - OUT =      -4.9561E-02                  IN - OUT =      -2.5063E-03

     PERCENT DISCREPANCY =          -0.01         PERCENT DISCREPANCY =          -0.01






         TIME SUMMARY AT END OF TIME STEP    3 IN STRESS PERIOD    3
                    SECONDS     MINUTES      HOURS       DAYS        YEARS
                    -----------------------------------------------------------
   TIME STEP LENGTH  86400.      1440.0      24.000      1.0000     2.73785E-03
 STRESS PERIOD TIME 2.59200E+05  4320.0      72.000      3.0000     8.21355E-03
         TOTAL TIME 1.98720E+06  33120.      552.00      23.000     6.29706E-02
1
 
 SOLVING FOR HEAD 
                                                   Max.-Head-Change                         Max.-Flux-Residual
  Residual-Control   Outer-Iter.   Inner-Iter.     Column Row Layer    Maximum-Head-Change  Column Row Layer    Maximum-Flux-Residual          L2-NORM 
          0                 1          13            45    1    13       0.2625890480E+00      43    1   13         0.7278065869E-01      0.2995400744E+00
          0                 2           5            47    1    14      -0.4313818249E-01      47    1   14        -0.1734727275E+00      0.4652603885E+00
          0                 3           2            47    1    14      -0.1440883944E-02      32    1    8        -0.7719547361E-02      0.1584111662E-01
          0                 4           1            48    1    14      -0.1375698837E-03      32    1    8        -0.2388276501E-03      0.1129586852E-02
          0                 5           1            39    1    10      -0.1774675203E-03      39    1   11        -0.1339556557E-03      0.9301499520E-03
          0                 6           1            39    1    10      -0.9763924820E-04      46    1   14        -0.1549310445E-03      0.7968230113E-03
          0                 7           1            39    1    10      -0.1048133824E-03      39    1   11        -0.9454527847E-04      0.6950500325E-03
          0                 8           1            39    1    10      -0.8054858141E-04      46    1   14        -0.1079579276E-03      0.6260122627E-03
          0                 9           1            39    1    10      -0.7040468524E-04      43    1   15        -0.6999973596E-04      0.5667316395E-03
          0                10           1            39    1    10      -0.7091088179E-04      46    1   14        -0.7739303135E-04      0.5232938173E-03
                                                   Max.-Head-Change                         Max.-Flux-Residual
  Residual-Control   Outer-Iter.   Inner-Iter.     Column Row Layer    Maximum-Head-Change  Column Row Layer    Maximum-Flux-Residual          L2-NORM 
          0                11           1            39    1    10      -0.5140520153E-04      43    1   15        -0.5721038502E-04      0.4835541738E-03
          0                12           1            39    1    10      -0.6456568052E-04      46    1   14        -0.5787203531E-04      0.4519392993E-03
          0                13           1            43    1    39      -0.3926611455E-04      43    1   15        -0.4805783698E-04      0.4222335489E-03
          0                14           1            39    1    10      -0.6002702869E-04      46    1   14        -0.4477267490E-04      0.3967344973E-03
          0                15           1            42    1    40      -0.3201772394E-04      43    1   15        -0.4110772767E-04      0.3727101731E-03
          0                16           1            39    1    10      -0.5655754494E-04      46    1   14        -0.3539655108E-04      0.3507264432E-03
          0                17           1            42    1    40      -0.2639270024E-04      43    1   15        -0.3541385433E-04      0.3302592626E-03
          0                18           1            39    1    10      -0.5373376211E-04      46    1   14        -0.2829184049E-04      0.3105449546E-03
          0                19           1            41    1    39      -0.2189577314E-04      43    1   15        -0.3041990806E-04      0.2925571150E-03
          0                20           1            39    1    10      -0.5123958156E-04      46    1   14        -0.2269145790E-04      0.2744918608E-03
                                                   Max.-Head-Change                         Max.-Flux-Residual
  Residual-Control   Outer-Iter.   Inner-Iter.     Column Row Layer    Maximum-Head-Change  Column Row Layer    Maximum-Flux-Residual          L2-NORM 
          0                21           1            40    1    40      -0.1830412379E-04      43    1   15        -0.2583097944E-04      0.2584172985E-03
          0                22           1            39    1    10      -0.4879877110E-04      46    1   14        -0.1817920139E-04      0.2416873459E-03
          0                23           1            38    1    40      -0.1536422989E-04      39    1   11        -0.2261739050E-04      0.2272217384E-03
          0                24           1            39    1    10      -0.4616769898E-04      39    1   11        -0.1522401016E-04      0.2116792679E-03
          0                25           1            38    1    40      -0.1294126462E-04      39    1   11        -0.2002701709E-04      0.1986602442E-03
          0                26           1            39    1    10      -0.4315724317E-04      39    1   11        -0.1325054757E-04      0.1842592563E-03
          0                27           1            38    1    40      -0.1090735848E-04      39    1   11        -0.1761459859E-04      0.1726035729E-03
          0                28           1            39    1    10      -0.3966988460E-04      39    1   11        -0.1148736612E-04      0.1593642931E-03
          0                29           1            37    1    39      -0.9201832374E-05      39    1   11        -0.1535101566E-04      0.1490274638E-03
          0                30           1            39    1    10      -0.3573213155E-04      39    1   11        -0.9915452523E-05      0.1370062483E-03
                                                   Max.-Head-Change                         Max.-Flux-Residual
  Residual-Control   Outer-Iter.   Inner-Iter.     Column Row Layer    Maximum-Head-Change  Column Row Layer    Maximum-Flux-Residual          L2-NORM 
          0                31           1            37    1    39      -0.7779633966E-05      39    1   11        -0.1323869199E-04      0.1279511590E-03
          0                32           1            39    1    10      -0.3149557417E-04      39    1   11        -0.8526023038E-05      0.1172077395E-03
          0                33           1            37    1    39      -0.6592798903E-05      39    1   11        -0.1129859984E-04      0.1093809829E-03

    ------------------------------------------------
       NWT REQUIRED           33 OUTER ITERATIONS 
       AND A TOTAL OF         50 INNER ITERATIONS.
    ------------------------------------------------

 OUTPUT CONTROL FOR STRESS PERIOD    3   TIME STEP    4
    PRINT BUDGET
    SAVE HEAD FOR ALL LAYERS
    SAVE DRAWDOWN FOR ALL LAYERS
    SAVE BUDGET
 UBDSV1 SAVING "         STORAGE" ON UNIT  40 AT TIME STEP  4, STRESS PERIOD   3
 UBDSV2 SAVING "   CONSTANT HEAD" ON UNIT  40 AT TIME STEP  4, STRESS PERIOD   3
 UBDSV1 SAVING "FLOW RIGHT FACE " ON UNIT  40 AT TIME STEP  4, STRESS PERIOD   3
 UBDSV1 SAVING "FLOW LOWER FACE " ON UNIT  40 AT TIME STEP  4, STRESS PERIOD   3
 UBDSV4 SAVING "          DRAINS" ON UNIT  40 AT TIME STEP  4, STRESS PERIOD   3
 UBDSV4 SAVING " HEAD DEP BOUNDS" ON UNIT  40 AT TIME STEP  4, STRESS PERIOD   3

 SAVING SATURATED THICKNESS AND FLOW TERMS ON UNIT  333 FOR MT3DMS
 BY THE LINK-MT3DMS PACKAGE V7 AT TIME STEP    4, STRESS PERIOD    3


 HEAD WILL BE SAVED ON UNIT    2 AT END OF TIME STEP    4, STRESS PERIOD    3

 DRAWDOWN WILL BE SAVED ON UNIT   13 AT END OF TIME STEP    4, STRESS PERIOD    3
1
  VOLUMETRIC BUDGET FOR ENTIRE MODEL AT END OF TIME STEP    4, STRESS PERIOD   3
  ------------------------------------------------------------------------------

     CUMULATIVE VOLUMES      L**3       RATES FOR THIS TIME STEP      L**3/T
     ------------------                 ------------------------

           IN:                                      IN:
           ---                                      ---
             STORAGE     =          66.8052               STORAGE     =       1.4103E-10
       CONSTANT HEAD     =           0.0000         CONSTANT HEAD     =           0.0000
              DRAINS     =           0.0000                DRAINS     =           0.0000
     HEAD DEP BOUNDS     =         587.2322       HEAD DEP BOUNDS     =          35.1595

                TOTAL IN =         654.0374                  TOTAL IN =          35.1595

          OUT:                                     OUT:
          ----                                     ----
             STORAGE     =          59.0660               STORAGE     =           0.4795
       CONSTANT HEAD     =           0.0000         CONSTANT HEAD     =           0.0000
              DRAINS     =         582.1891                DRAINS     =          34.6827
     HEAD DEP BOUNDS     =          12.8346       HEAD DEP BOUNDS     =           0.0000

               TOTAL OUT =         654.0897                 TOTAL OUT =          35.1622

                IN - OUT =      -5.2368E-02                  IN - OUT =      -2.6894E-03

     PERCENT DISCREPANCY =          -0.01         PERCENT DISCREPANCY =          -0.01






         TIME SUMMARY AT END OF TIME STEP    4 IN STRESS PERIOD    3
                    SECONDS     MINUTES      HOURS       DAYS        YEARS
                    -----------------------------------------------------------
   TIME STEP LENGTH  86400.      1440.0      24.000      1.0000     2.73785E-03
 STRESS PERIOD TIME 3.45600E+05  5760.0      96.000      4.0000     1.09514E-02
         TOTAL TIME 2.07360E+06  34560.      576.00      24.000     6.57084E-02
1
 
 SOLVING FOR HEAD 
                                                   Max.-Head-Change                         Max.-Flux-Residual
  Residual-Control   Outer-Iter.   Inner-Iter.     Column Row Layer    Maximum-Head-Change  Column Row Layer    Maximum-Flux-Residual          L2-NORM 
          0                 1          11            39    1    10       0.7800934865E-01      39    1   11         0.1916169228E-01      0.7394566817E-01
          0                 2           2            27    1     6       0.1194845833E-01      26    1    6        -0.5666951255E-01      0.8830323316E-01
          0                 3           1            26    1     4      -0.4821611685E-03      26    1    6        -0.2572458741E-02      0.3242844458E-02
          0                 4           1            33    1     7       0.2015365734E-03      23    1    7        -0.1073129212E-03      0.8645632041E-03
          0                 5           1            39    1    10       0.8136012592E-04      26    1    6         0.8728606309E-04      0.6767521828E-03
          0                 6           1            62    1    40       0.7945394255E-04      64    1   36         0.4487403095E-04      0.5766873601E-03
          0                 7           1            60    1    40       0.6224550904E-04      31    1   11         0.4491731477E-04      0.5208949974E-03
          0                 8           1            60    1    40       0.5846020872E-04      60    1   36         0.3518959070E-04      0.4713547012E-03
          0                 9           1            58    1    40       0.5186128320E-04      31    1   11         0.3570034829E-04      0.4356148823E-03
          0                10           1            58    1    40       0.4441253698E-04      37    1   33         0.3038379418E-04      0.4014434380E-03
                                                   Max.-Head-Change                         Max.-Flux-Residual
  Residual-Control   Outer-Iter.   Inner-Iter.     Column Row Layer    Maximum-Head-Change  Column Row Layer    Maximum-Flux-Residual          L2-NORM 
          0                11           1            56    1    40       0.4409033110E-04      31    1   11         0.2962409485E-04      0.3743061270E-03
          0                12           1            54    1    40       0.3596003540E-04      37    1   33         0.2953053985E-04      0.3486158733E-03
          0                13           1            54    1    40       0.3758780726E-04      37    1   33         0.2787208143E-04      0.3262098481E-03
          0                14           1            52    1    40       0.3040068517E-04      37    1   33         0.2770821533E-04      0.3060457614E-03
          0                15           1            50    1    40       0.3205005059E-04      37    1   33         0.2581229779E-04      0.2871230200E-03
          0                16           1            50    1    40       0.2641917304E-04      37    1   33         0.2548001754E-04      0.2706282425E-03
          0                17           1            48    1    40       0.2748608399E-04      37    1   33         0.2369136115E-04      0.2545781767E-03
          0                18           1            48    1    40       0.2323844763E-04      37    1   33         0.2319278559E-04      0.2406246103E-03
          0                19           1            46    1    40       0.2386465777E-04      37    1   33         0.2160818821E-04      0.2268996378E-03
          0                20           1            46    1    40       0.2059898970E-04      37    1   33         0.2100944340E-04      0.2148504984E-03
                                                   Max.-Head-Change                         Max.-Flux-Residual
  Residual-Control   Outer-Iter.   Inner-Iter.     Column Row Layer    Maximum-Head-Change  Column Row Layer    Maximum-Flux-Residual          L2-NORM 
          0                21           1            44    1    40       0.2091038140E-04      37    1   33         0.1961870032E-04      0.2029593140E-03
          0                22           1            44    1    40       0.1831821985E-04      37    1   33         0.1898501728E-04      0.1924347906E-03
          0                23           1            42    1    40       0.1851068991E-04      37    1   33         0.1775683660E-04      0.1819975273E-03
          0                24           1            42    1    40       0.1637984846E-04      37    1   33         0.1713118098E-04      0.1727400500E-03
          0                25           1            39    1    10       0.1674363431E-04      37    1   33         0.1603834795E-04      0.1634828622E-03
          0                26           1            42    1    40       0.1465209578E-04      37    1   33         0.1544465147E-04      0.1553008587E-03
          0                27           1            39    1    10       0.1523404983E-04      37    1   33         0.1446632240E-04      0.1470269334E-03
          0                28           1            40    1    40       0.1311283186E-04      37    1   33         0.1391646163E-04      0.1397708512E-03
          0                29           1            39    1    10       0.1384312772E-04      37    1   33         0.1303653841E-04      0.1323352468E-03
          0                30           1            40    1    40       0.1176774458E-04      37    1   33         0.1253526261E-04      0.1258845495E-03
                                                   Max.-Head-Change                         Max.-Flux-Residual
  Residual-Control   Outer-Iter.   Inner-Iter.     Column Row Layer    Maximum-Head-Change  Column Row Layer    Maximum-Flux-Residual          L2-NORM 
          0                31           1            39    1    10       0.1256346628E-04      37    1   33         0.1174100635E-04      0.1191771185E-03
          0                32           1            39    1    39       0.1056300575E-04      37    1   33         0.1128890489E-04      0.1134321174E-03
          0                33           1            39    1    10       0.1138858825E-04      37    1   33         0.1057003266E-04      0.1073664096E-03
          0                34           1            39    1    39       0.9492306875E-05      37    1   33         0.1016531291E-04      0.1022429310E-03

    ------------------------------------------------
       NWT REQUIRED           34 OUTER ITERATIONS 
       AND A TOTAL OF         45 INNER ITERATIONS.
    ------------------------------------------------

 OUTPUT CONTROL FOR STRESS PERIOD    3   TIME STEP    5
    PRINT BUDGET
    SAVE HEAD FOR ALL LAYERS
    SAVE DRAWDOWN FOR ALL LAYERS
    SAVE BUDGET
 UBDSV1 SAVING "         STORAGE" ON UNIT  40 AT TIME STEP  5, STRESS PERIOD   3
 UBDSV2 SAVING "   CONSTANT HEAD" ON UNIT  40 AT TIME STEP  5, STRESS PERIOD   3
 UBDSV1 SAVING "FLOW RIGHT FACE " ON UNIT  40 AT TIME STEP  5, STRESS PERIOD   3
 UBDSV1 SAVING "FLOW LOWER FACE " ON UNIT  40 AT TIME STEP  5, STRESS PERIOD   3
 UBDSV4 SAVING "          DRAINS" ON UNIT  40 AT TIME STEP  5, STRESS PERIOD   3
 UBDSV4 SAVING " HEAD DEP BOUNDS" ON UNIT  40 AT TIME STEP  5, STRESS PERIOD   3

 SAVING SATURATED THICKNESS AND FLOW TERMS ON UNIT  333 FOR MT3DMS
 BY THE LINK-MT3DMS PACKAGE V7 AT TIME STEP    5, STRESS PERIOD    3


 HEAD WILL BE SAVED ON UNIT    2 AT END OF TIME STEP    5, STRESS PERIOD    3

 DRAWDOWN WILL BE SAVED ON UNIT   13 AT END OF TIME STEP    5, STRESS PERIOD    3
1
  VOLUMETRIC BUDGET FOR ENTIRE MODEL AT END OF TIME STEP    5, STRESS PERIOD   3
  ------------------------------------------------------------------------------

     CUMULATIVE VOLUMES      L**3       RATES FOR THIS TIME STEP      L**3/T
     ------------------                 ------------------------

           IN:                                      IN:
           ---                                      ---
             STORAGE     =          66.8052               STORAGE     =       9.2030E-10
       CONSTANT HEAD     =           0.0000         CONSTANT HEAD     =           0.0000
              DRAINS     =           0.0000                DRAINS     =           0.0000
     HEAD DEP BOUNDS     =         622.2487       HEAD DEP BOUNDS     =          35.0165

                TOTAL IN =         689.0538                  TOTAL IN =          35.0165

          OUT:                                     OUT:
          ----                                     ----
             STORAGE     =          59.1731               STORAGE     =           0.1071
       CONSTANT HEAD     =           0.0000         CONSTANT HEAD     =           0.0000
              DRAINS     =         617.0960                DRAINS     =          34.9069
     HEAD DEP BOUNDS     =          12.8346       HEAD DEP BOUNDS     =           0.0000

               TOTAL OUT =         689.1037                 TOTAL OUT =          35.0140

                IN - OUT =      -4.9866E-02                  IN - OUT =       2.5024E-03

     PERCENT DISCREPANCY =          -0.01         PERCENT DISCREPANCY =           0.01






         TIME SUMMARY AT END OF TIME STEP    5 IN STRESS PERIOD    3
                    SECONDS     MINUTES      HOURS       DAYS        YEARS
                    -----------------------------------------------------------
   TIME STEP LENGTH  86400.      1440.0      24.000      1.0000     2.73785E-03
 STRESS PERIOD TIME 4.32000E+05  7200.0      120.00      5.0000     1.36893E-02
         TOTAL TIME 2.16000E+06  36000.      600.00      25.000     6.84463E-02
1
 
 SOLVING FOR HEAD 
                                                   Max.-Head-Change                         Max.-Flux-Residual
  Residual-Control   Outer-Iter.   Inner-Iter.     Column Row Layer    Maximum-Head-Change  Column Row Layer    Maximum-Flux-Residual          L2-NORM 
          0                 1           6            39    1    10       0.1419658915E-01      39    1   11         0.4697825742E-02      0.1688246519E-01
          0                 2           1            33    1    33       0.1975708142E-03      38    1   10         0.2200530311E-03      0.1950998159E-02
          0                 3           1            35    1    39       0.2296214962E-03      39    1   11         0.1302439075E-03      0.1794614875E-02
          0                 4           1            35    1    39       0.1759503852E-03      38    1   10         0.1447458434E-03      0.1687914891E-02
          0                 5           1            33    1     7       0.1833769650E-03      38    1   14         0.1162028586E-03      0.1588699313E-02
          0                 6           1            39    1    10       0.1658020333E-03      34    1   14         0.1137330834E-03      0.1503557930E-02
          0                 7           1            35    1    39       0.1466484178E-03      38    1   14         0.1116403411E-03      0.1420235471E-02
          0                 8           1            39    1    10       0.1563806918E-03      34    1   14         0.1005350265E-03      0.1347038863E-02
          0                 9           1            35    1    39       0.1227743113E-03      38    1   14         0.1030006119E-03      0.1275004224E-02
          0                10           1            39    1    10       0.1457047052E-03      34    1   16         0.8788870457E-04      0.1210126126E-02
                                                   Max.-Head-Change                         Max.-Flux-Residual
  Residual-Control   Outer-Iter.   Inner-Iter.     Column Row Layer    Maximum-Head-Change  Column Row Layer    Maximum-Flux-Residual          L2-NORM 
          0                11           1            35    1    39       0.1055638158E-03      38    1   14         0.9318497752E-04      0.1146466201E-02
          0                12           1            39    1    10       0.1345310551E-03      34    1   16         0.7779325608E-04      0.1088156409E-02
          0                13           1            35    1    39       0.9209300798E-04      38    1   14         0.8368981685E-04      0.1031214010E-02
          0                14           1            39    1    10       0.1234081906E-03      34    1   16         0.6859014172E-04      0.9785629296E-03
          0                15           1            35    1    39       0.8095061087E-04      38    1   14         0.7500032706E-04      0.9273616221E-03
          0                16           1            39    1    10       0.1126941628E-03      34    1   16         0.6043628747E-04      0.8797678312E-03
          0                17           1            36    1    40       0.7146917164E-04      38    1   14         0.6716673306E-04      0.8336452770E-03
          0                18           1            39    1    10       0.1025773143E-03      34    1   16         0.5327134988E-04      0.7906271347E-03
          0                19           1            36    1    40       0.6328766986E-04      38    1   14         0.6011894999E-04      0.7490508261E-03
          0                20           1            39    1    10       0.9311673476E-04      42    1   16         0.4698719050E-04      0.7101807124E-03
                                                   Max.-Head-Change                         Max.-Flux-Residual
  Residual-Control   Outer-Iter.   Inner-Iter.     Column Row Layer    Maximum-Head-Change  Column Row Layer    Maximum-Flux-Residual          L2-NORM 
          0                21           1            36    1    40       0.5614951683E-04      38    1   14         0.5376123272E-04      0.6727130608E-03
          0                22           1            39    1    10       0.8431403017E-04      42    1   16         0.4178365975E-04      0.6376127045E-03
          0                23           1            36    1    40       0.4989744202E-04      38    1   14         0.4801224907E-04      0.6038703687E-03
          0                24           1            39    1    10       0.7615109867E-04      36    1   22         0.3717621888E-04      0.5722003850E-03
          0                25           1            36    1    40       0.4440850321E-04      38    1   14         0.4280766018E-04      0.5418409072E-03
          0                26           1            39    1    10       0.6860539541E-04      36    1   22         0.3315803053E-04      0.5132945045E-03
          0                27           1            36    1    40       0.3958131507E-04      38    1   14         0.3809694914E-04      0.4860074030E-03
          0                28           1            39    1    10       0.6165491205E-04      36    1   22         0.2952594531E-04      0.4603049515E-03
          0                29           1            37    1    39       0.3533666506E-04      46    1   14         0.3399102548E-04      0.4358059245E-03
          0                30           1            39    1    10       0.5527851358E-04      37    1   21         0.2641501681E-04      0.4126906056E-03
                                                   Max.-Head-Change                         Max.-Flux-Residual
  Residual-Control   Outer-Iter.   Inner-Iter.     Column Row Layer    Maximum-Head-Change  Column Row Layer    Maximum-Flux-Residual          L2-NORM 
          0                31           1            37    1    39       0.3160137708E-04      46    1   14         0.3066362189E-04      0.3907177079E-03
          0                32           1            39    1    10       0.4945473898E-04      37    1   21         0.2380710430E-04      0.3699523231E-03
          0                33           1            38    1    38       0.2831498485E-04      46    1   14         0.2750835986E-04      0.3502635050E-03
          0                34           1            39    1    10       0.4416050052E-04      37    1   21         0.2142548806E-04      0.3316283181E-03
          0                35           1            38    1    38       0.2541599805E-04      46    1   14         0.2455305389E-04      0.3139998762E-03
          0                36           1            39    1    10       0.3937024912E-04      37    1   21         0.1925649377E-04      0.2972912459E-03
          0                37           1            38    1    38       0.2284386768E-04      46    1   14         0.2181592694E-04      0.2815168565E-03
          0                38           1            39    1    10       0.3505572196E-04      37    1   21         0.1728593696E-04      0.2665463943E-03
          0                39           1            38    1    38       0.2055674302E-04      46    1   14         0.1930648324E-04      0.2524364564E-03
          0                40           1            39    1    10       0.3118620310E-04      37    1   21         0.1549952407E-04      0.2390304822E-03
                                                   Max.-Head-Change                         Max.-Flux-Residual
  Residual-Control   Outer-Iter.   Inner-Iter.     Column Row Layer    Maximum-Head-Change  Column Row Layer    Maximum-Flux-Residual          L2-NORM 
          0                41           1            38    1    38       0.1851830070E-04      46    1   14         0.1702667188E-04      0.2264115655E-03
          0                42           1            39    1    10       0.2772915609E-04      37    1   21         0.1388316724E-04      0.2144106786E-03
          0                43           1            38    1    38       0.1669707385E-04      46    1   14         0.1497222635E-04      0.2031249605E-03
          0                44           1            39    1    10       0.2465102602E-04      37    1   21         0.1242321918E-04      0.1923835939E-03
          0                45           1            38    1    38       0.1506586219E-04      46    1   14         0.1313405340E-04      0.1822881977E-03
          0                46           1            39    1    10       0.2191809887E-04      37    1   21         0.1110663692E-04      0.1726740967E-03
          0                47           1            38    1    38       0.1360120739E-04      46    1   14         0.1149957492E-04      0.1636403143E-03
          0                48           1            39    1    10       0.1949727471E-04      37    1   21         0.9921087155E-05      0.1550339000E-03
          0                49           1            38    1    38       0.1228292398E-04      46    1   14         0.1005393673E-04      0.1469463033E-03
          0                50           1            39    1    10       0.1735674461E-04      32    1   28         0.8909603764E-05      0.1392399335E-03
                                                   Max.-Head-Change                         Max.-Flux-Residual
  Residual-Control   Outer-Iter.   Inner-Iter.     Column Row Layer    Maximum-Head-Change  Column Row Layer    Maximum-Flux-Residual          L2-NORM 
          0                51           1            38    1    36       0.1109630420E-04      33    1   21         0.8881355200E-05      0.1319953944E-03
          0                52           1            39    1    10       0.1546648655E-04      32    1   28         0.8012802766E-05      0.1250925363E-03
          0                53           1            38    1    36       0.1002390188E-04      33    1   21         0.7885346974E-05      0.1185991978E-03
          0                54           1            39    1    10       0.1379859937E-04      32    1   28         0.7202365623E-05      0.1124135451E-03
          0                55           1            38    1    36       0.9051856164E-05      36    1   28         0.7035160820E-05      0.1065897765E-03
          0                56           1            39    1    10       0.1232750014E-04      32    1   28         0.6470274570E-05      0.1010443444E-03

    ------------------------------------------------
       NWT REQUIRED           56 OUTER ITERATIONS 
       AND A TOTAL OF         61 INNER ITERATIONS.
    ------------------------------------------------

 OUTPUT CONTROL FOR STRESS PERIOD    3   TIME STEP    6
    PRINT BUDGET
    SAVE HEAD FOR ALL LAYERS
    SAVE DRAWDOWN FOR ALL LAYERS
    SAVE BUDGET
 UBDSV1 SAVING "         STORAGE" ON UNIT  40 AT TIME STEP  6, STRESS PERIOD   3
 UBDSV2 SAVING "   CONSTANT HEAD" ON UNIT  40 AT TIME STEP  6, STRESS PERIOD   3
 UBDSV1 SAVING "FLOW RIGHT FACE " ON UNIT  40 AT TIME STEP  6, STRESS PERIOD   3
 UBDSV1 SAVING "FLOW LOWER FACE " ON UNIT  40 AT TIME STEP  6, STRESS PERIOD   3
 UBDSV4 SAVING "          DRAINS" ON UNIT  40 AT TIME STEP  6, STRESS PERIOD   3
 UBDSV4 SAVING " HEAD DEP BOUNDS" ON UNIT  40 AT TIME STEP  6, STRESS PERIOD   3

 SAVING SATURATED THICKNESS AND FLOW TERMS ON UNIT  333 FOR MT3DMS
 BY THE LINK-MT3DMS PACKAGE V7 AT TIME STEP    6, STRESS PERIOD    3


 HEAD WILL BE SAVED ON UNIT    2 AT END OF TIME STEP    6, STRESS PERIOD    3

 DRAWDOWN WILL BE SAVED ON UNIT   13 AT END OF TIME STEP    6, STRESS PERIOD    3
1
  VOLUMETRIC BUDGET FOR ENTIRE MODEL AT END OF TIME STEP    6, STRESS PERIOD   3
  ------------------------------------------------------------------------------

     CUMULATIVE VOLUMES      L**3       RATES FOR THIS TIME STEP      L**3/T
     ------------------                 ------------------------

           IN:                                      IN:
           ---                                      ---
             STORAGE     =          66.8052               STORAGE     =       1.0340E-09
       CONSTANT HEAD     =           0.0000         CONSTANT HEAD     =           0.0000
              DRAINS     =           0.0000                DRAINS     =           0.0000
     HEAD DEP BOUNDS     =         657.2305       HEAD DEP BOUNDS     =          34.9818

                TOTAL IN =         724.0358                  TOTAL IN =          34.9818

          OUT:                                     OUT:
          ----                                     ----
             STORAGE     =          59.1973               STORAGE     =       2.4255E-02
       CONSTANT HEAD     =           0.0000         CONSTANT HEAD     =           0.0000
              DRAINS     =         652.0510                DRAINS     =          34.9550
     HEAD DEP BOUNDS     =          12.8346       HEAD DEP BOUNDS     =           0.0000

               TOTAL OUT =         724.0830                 TOTAL OUT =          34.9793

                IN - OUT =      -4.7241E-02                  IN - OUT =       2.5520E-03

     PERCENT DISCREPANCY =          -0.01         PERCENT DISCREPANCY =           0.01






         TIME SUMMARY AT END OF TIME STEP    6 IN STRESS PERIOD    3
                    SECONDS     MINUTES      HOURS       DAYS        YEARS
                    -----------------------------------------------------------
   TIME STEP LENGTH  86400.      1440.0      24.000      1.0000     2.73785E-03
 STRESS PERIOD TIME 5.18400E+05  8640.0      144.00      6.0000     1.64271E-02
         TOTAL TIME 2.24640E+06  37440.      624.00      26.000     7.11841E-02
1
 
 SOLVING FOR HEAD 
                                                   Max.-Head-Change                         Max.-Flux-Residual
  Residual-Control   Outer-Iter.   Inner-Iter.     Column Row Layer    Maximum-Head-Change  Column Row Layer    Maximum-Flux-Residual          L2-NORM 
          0                 1           1            39    1    10       0.9524872976E-03      39    1   11         0.1016679941E-02      0.3932017294E-02
          0                 2           1            39    1    10       0.8157195273E-03      31    1   11         0.3380518830E-03      0.1825633264E-02
          0                 3           1            39    1    10       0.2978923905E-03      34    1   14         0.1997393206E-03      0.1265508364E-02
          0                 4           1            39    1    10       0.2133600738E-03      31    1   11         0.1650453031E-03      0.9779885285E-03
          0                 5           1            39    1    10       0.2835271230E-03      34    1   14         0.1087104931E-03      0.8540907303E-03
          0                 6           1            39    1    10       0.9693133143E-04      31    1   11         0.1182358078E-03      0.7281402039E-03
          0                 7           1            39    1    10       0.2442184053E-03      34    1   14         0.6845170361E-04      0.6510061543E-03
          0                 8           1            39    1    10       0.5345909317E-04      31    1   11         0.8776595109E-04      0.5745134408E-03
          0                 9           1            39    1    10       0.1860687777E-03      34    1   14         0.4601838708E-04      0.5198436929E-03
          0                10           1            39    1    10       0.3485610250E-04      31    1   11         0.6507192040E-04      0.4709461558E-03
                                                   Max.-Head-Change                         Max.-Flux-Residual
  Residual-Control   Outer-Iter.   Inner-Iter.     Column Row Layer    Maximum-Head-Change  Column Row Layer    Maximum-Flux-Residual          L2-NORM 
          0                11           1            39    1    10       0.1302812691E-03      34    1   14         0.3322206157E-04      0.4306220635E-03
          0                12           1            39    1    10       0.2633049794E-04      31    1   11         0.4876429165E-04      0.3965830957E-03
          0                13           1            39    1    10       0.9267822732E-04      34    1   14         0.2577197904E-04      0.3657511958E-03
          0                14           1            39    1    10       0.2183932900E-04      31    1   11         0.3696356822E-04      0.3397358357E-03
          0                15           1            39    1    10       0.6967275624E-04      34    1   14         0.2089613855E-04      0.3153925823E-03
          0                16           1            35    1    39       0.1949624018E-04      38    1   14         0.2934328836E-04      0.2943450281E-03
          0                17           1            39    1    10       0.5511941619E-04      34    1   14         0.1729188898E-04      0.2745072432E-03
          0                18           1            36    1    38       0.1734502439E-04      38    1   14         0.2368037133E-04      0.2568748983E-03
          0                19           1            39    1    10       0.4532873145E-04      37    1   27         0.1510843191E-04      0.2402646773E-03
          0                20           1            36    1    38       0.1535642046E-04      38    1   14         0.1930333644E-04      0.2251590637E-03
                                                   Max.-Head-Change                         Max.-Flux-Residual
  Residual-Control   Outer-Iter.   Inner-Iter.     Column Row Layer    Maximum-Head-Change  Column Row Layer    Maximum-Flux-Residual          L2-NORM 
          0                21           1            39    1    10       0.3832232638E-04      37    1   27         0.1327530344E-04      0.2109646836E-03
          0                22           1            36    1    38       0.1354197186E-04      24    1   10         0.1594452209E-04      0.1978388663E-03
          0                23           1            39    1    10       0.3301849837E-04      37    1   27         0.1167169489E-04      0.1855363857E-03
          0                24           1            36    1    38       0.1190499970E-04      24    1   10         0.1413481175E-04      0.1740314550E-03
          0                25           1            39    1    10       0.2880676700E-04      37    1   27         0.1025693058E-04      0.1632702431E-03
          0                26           1            36    1    38       0.1044091739E-04      24    1   10         0.1252179510E-04      0.1531350434E-03
          0                27           1            39    1    10       0.2533187433E-04      37    1   27         0.9004295009E-05      0.1436689315E-03
          0                28           1            36    1    38       0.9139892899E-05      24    1   10         0.1108308618E-04      0.1347164558E-03
          0                29           1            39    1    10       0.2238171692E-04      37    1   27         0.7894485293E-05      0.1263633158E-03
          0                30           1            37    1    39       0.7991287372E-05      24    1   10         0.9798672124E-05      0.1184463751E-03
                                                   Max.-Head-Change                         Max.-Flux-Residual
  Residual-Control   Outer-Iter.   Inner-Iter.     Column Row Layer    Maximum-Head-Change  Column Row Layer    Maximum-Flux-Residual          L2-NORM 
          0                31           1            39    1    10       0.1982650243E-04      37    1   27         0.6912186507E-05      0.1110643777E-03
          0                32           1            33    1     8       0.6991796329E-05      24    1   10         0.8651616099E-05      0.1040616927E-03

    ------------------------------------------------
       NWT REQUIRED           32 OUTER ITERATIONS 
       AND A TOTAL OF         32 INNER ITERATIONS.
    ------------------------------------------------

 OUTPUT CONTROL FOR STRESS PERIOD    3   TIME STEP    7
    PRINT BUDGET
    SAVE HEAD FOR ALL LAYERS
    SAVE DRAWDOWN FOR ALL LAYERS
    SAVE BUDGET
 UBDSV1 SAVING "         STORAGE" ON UNIT  40 AT TIME STEP  7, STRESS PERIOD   3
 UBDSV2 SAVING "   CONSTANT HEAD" ON UNIT  40 AT TIME STEP  7, STRESS PERIOD   3
 UBDSV1 SAVING "FLOW RIGHT FACE " ON UNIT  40 AT TIME STEP  7, STRESS PERIOD   3
 UBDSV1 SAVING "FLOW LOWER FACE " ON UNIT  40 AT TIME STEP  7, STRESS PERIOD   3
 UBDSV4 SAVING "          DRAINS" ON UNIT  40 AT TIME STEP  7, STRESS PERIOD   3
 UBDSV4 SAVING " HEAD DEP BOUNDS" ON UNIT  40 AT TIME STEP  7, STRESS PERIOD   3

 SAVING SATURATED THICKNESS AND FLOW TERMS ON UNIT  333 FOR MT3DMS
 BY THE LINK-MT3DMS PACKAGE V7 AT TIME STEP    7, STRESS PERIOD    3


 HEAD WILL BE SAVED ON UNIT    2 AT END OF TIME STEP    7, STRESS PERIOD    3

 DRAWDOWN WILL BE SAVED ON UNIT   13 AT END OF TIME STEP    7, STRESS PERIOD    3
1
  VOLUMETRIC BUDGET FOR ENTIRE MODEL AT END OF TIME STEP    7, STRESS PERIOD   3
  ------------------------------------------------------------------------------

     CUMULATIVE VOLUMES      L**3       RATES FOR THIS TIME STEP      L**3/T
     ------------------                 ------------------------

           IN:                                      IN:
           ---                                      ---
             STORAGE     =          66.8052               STORAGE     =       1.6300E-09
       CONSTANT HEAD     =           0.0000         CONSTANT HEAD     =           0.0000
              DRAINS     =           0.0000                DRAINS     =           0.0000
     HEAD DEP BOUNDS     =         692.2043       HEAD DEP BOUNDS     =          34.9738

                TOTAL IN =         759.0095                  TOTAL IN =          34.9738

          OUT:                                     OUT:
          ----                                     ----
             STORAGE     =          59.2029               STORAGE     =       5.5329E-03
       CONSTANT HEAD     =           0.0000         CONSTANT HEAD     =           0.0000
              DRAINS     =         687.0167                DRAINS     =          34.9657
     HEAD DEP BOUNDS     =          12.8346       HEAD DEP BOUNDS     =           0.0000

               TOTAL OUT =         759.0543                 TOTAL OUT =          34.9712

                IN - OUT =      -4.4739E-02                  IN - OUT =       2.6283E-03

     PERCENT DISCREPANCY =          -0.01         PERCENT DISCREPANCY =           0.01






         TIME SUMMARY AT END OF TIME STEP    7 IN STRESS PERIOD    3
                    SECONDS     MINUTES      HOURS       DAYS        YEARS
                    -----------------------------------------------------------
   TIME STEP LENGTH  86400.      1440.0      24.000      1.0000     2.73785E-03
 STRESS PERIOD TIME 6.04800E+05  10080.      168.00      7.0000     1.91650E-02
         TOTAL TIME 2.33280E+06  38880.      648.00      27.000     7.39220E-02
1
 
 SOLVING FOR HEAD 
                                                   Max.-Head-Change                         Max.-Flux-Residual
  Residual-Control   Outer-Iter.   Inner-Iter.     Column Row Layer    Maximum-Head-Change  Column Row Layer    Maximum-Flux-Residual          L2-NORM 
          0                 1           1            39    1    10       0.2173812844E-03      39    1   11         0.2281996059E-03      0.9080817094E-03
          0                 2           1            39    1    10       0.1971441805E-03      31    1   11         0.8066764804E-04      0.4507487341E-03
          0                 3           1            39    1    10       0.7790139515E-04      34    1   14         0.4923094826E-04      0.3335519080E-03
          0                 4           1            39    1    10       0.5334387642E-04      31    1   11         0.4090060821E-04      0.2701423290E-03
          0                 5           1            39    1    10       0.8519891136E-04      34    1   14         0.2751711997E-04      0.2440090071E-03
          0                 6           1            39    1    10       0.2371047059E-04      31    1   11         0.3099151974E-04      0.2129752899E-03
          0                 7           1            39    1    10       0.8357846368E-04      34    1   14         0.1732110576E-04      0.1941744266E-03
          0                 8           1            39    1    10       0.1210514580E-04      31    1   11         0.2432846958E-04      0.1719205224E-03
          0                 9           1            39    1    10       0.6368214367E-04      34    1   14         0.1132310223E-04      0.1556242685E-03
          0                10           1            37    1    13       0.7886190431E-05      31    1   11         0.1792712555E-04      0.1397938607E-03
                                                   Max.-Head-Change                         Max.-Flux-Residual
  Residual-Control   Outer-Iter.   Inner-Iter.     Column Row Layer    Maximum-Head-Change  Column Row Layer    Maximum-Flux-Residual          L2-NORM 
          0                11           1            39    1    10       0.4192865932E-04      34    1   14         0.7981157523E-05      0.1261689426E-03
          0                12           1            36    1    40       0.6610629864E-05      25    1    9         0.1373315615E-04      0.1148175904E-03
          0                13           1            39    1    10       0.2975463219E-04      37    1   27         0.6455780294E-05      0.1044541816E-03

    ------------------------------------------------
       NWT REQUIRED           13 OUTER ITERATIONS 
       AND A TOTAL OF         13 INNER ITERATIONS.
    ------------------------------------------------

 OUTPUT CONTROL FOR STRESS PERIOD    3   TIME STEP    8
    PRINT BUDGET
    SAVE HEAD FOR ALL LAYERS
    SAVE DRAWDOWN FOR ALL LAYERS
    SAVE BUDGET
 UBDSV1 SAVING "         STORAGE" ON UNIT  40 AT TIME STEP  8, STRESS PERIOD   3
 UBDSV2 SAVING "   CONSTANT HEAD" ON UNIT  40 AT TIME STEP  8, STRESS PERIOD   3
 UBDSV1 SAVING "FLOW RIGHT FACE " ON UNIT  40 AT TIME STEP  8, STRESS PERIOD   3
 UBDSV1 SAVING "FLOW LOWER FACE " ON UNIT  40 AT TIME STEP  8, STRESS PERIOD   3
 UBDSV4 SAVING "          DRAINS" ON UNIT  40 AT TIME STEP  8, STRESS PERIOD   3
 UBDSV4 SAVING " HEAD DEP BOUNDS" ON UNIT  40 AT TIME STEP  8, STRESS PERIOD   3

 SAVING SATURATED THICKNESS AND FLOW TERMS ON UNIT  333 FOR MT3DMS
 BY THE LINK-MT3DMS PACKAGE V7 AT TIME STEP    8, STRESS PERIOD    3


 HEAD WILL BE SAVED ON UNIT    2 AT END OF TIME STEP    8, STRESS PERIOD    3

 DRAWDOWN WILL BE SAVED ON UNIT   13 AT END OF TIME STEP    8, STRESS PERIOD    3
1
  VOLUMETRIC BUDGET FOR ENTIRE MODEL AT END OF TIME STEP    8, STRESS PERIOD   3
  ------------------------------------------------------------------------------

     CUMULATIVE VOLUMES      L**3       RATES FOR THIS TIME STEP      L**3/T
     ------------------                 ------------------------

           IN:                                      IN:
           ---                                      ---
             STORAGE     =          66.8052               STORAGE     =       1.6196E-09
       CONSTANT HEAD     =           0.0000         CONSTANT HEAD     =           0.0000
              DRAINS     =           0.0000                DRAINS     =           0.0000
     HEAD DEP BOUNDS     =         727.1763       HEAD DEP BOUNDS     =          34.9719

                TOTAL IN =         793.9814                  TOTAL IN =          34.9719

          OUT:                                     OUT:
          ----                                     ----
             STORAGE     =          59.2041               STORAGE     =       1.2907E-03
       CONSTANT HEAD     =           0.0000         CONSTANT HEAD     =           0.0000
              DRAINS     =         721.9849                DRAINS     =          34.9682
     HEAD DEP BOUNDS     =          12.8346       HEAD DEP BOUNDS     =           0.0000

               TOTAL OUT =         794.0237                 TOTAL OUT =          34.9695

                IN - OUT =      -4.2297E-02                  IN - OUT =       2.4376E-03

     PERCENT DISCREPANCY =          -0.01         PERCENT DISCREPANCY =           0.01






         TIME SUMMARY AT END OF TIME STEP    8 IN STRESS PERIOD    3
                    SECONDS     MINUTES      HOURS       DAYS        YEARS
                    -----------------------------------------------------------
   TIME STEP LENGTH  86400.      1440.0      24.000      1.0000     2.73785E-03
 STRESS PERIOD TIME 6.91200E+05  11520.      192.00      8.0000     2.19028E-02
         TOTAL TIME 2.41920E+06  40320.      672.00      28.000     7.66598E-02
1
 
 SOLVING FOR HEAD 
                                                   Max.-Head-Change                         Max.-Flux-Residual
  Residual-Control   Outer-Iter.   Inner-Iter.     Column Row Layer    Maximum-Head-Change  Column Row Layer    Maximum-Flux-Residual          L2-NORM 
          0                 1           1            39    1    10       0.5323034039E-04      39    1   11         0.5197741029E-04      0.2314570830E-03
          0                 2           1            39    1    10       0.6034279115E-04      31    1   11         0.2130631401E-04      0.1505519942E-03
          0                 3           1            39    1    10       0.2557099305E-04      34    1   14         0.1453185826E-04      0.1288064091E-03
          0                 4           1            39    1    10       0.1737651652E-04      31    1   11         0.1246600920E-04      0.1132759382E-03
          0                 5           1            39    1    10       0.3968765864E-04      34    1   14         0.8830783543E-05      0.1066157273E-03

    ------------------------------------------------
       NWT REQUIRED            5 OUTER ITERATIONS 
       AND A TOTAL OF          5 INNER ITERATIONS.
    ------------------------------------------------

 OUTPUT CONTROL FOR STRESS PERIOD    3   TIME STEP    9
    PRINT BUDGET
    SAVE HEAD FOR ALL LAYERS
    SAVE DRAWDOWN FOR ALL LAYERS
    SAVE BUDGET
 UBDSV1 SAVING "         STORAGE" ON UNIT  40 AT TIME STEP  9, STRESS PERIOD   3
 UBDSV2 SAVING "   CONSTANT HEAD" ON UNIT  40 AT TIME STEP  9, STRESS PERIOD   3
 UBDSV1 SAVING "FLOW RIGHT FACE " ON UNIT  40 AT TIME STEP  9, STRESS PERIOD   3
 UBDSV1 SAVING "FLOW LOWER FACE " ON UNIT  40 AT TIME STEP  9, STRESS PERIOD   3
 UBDSV4 SAVING "          DRAINS" ON UNIT  40 AT TIME STEP  9, STRESS PERIOD   3
 UBDSV4 SAVING " HEAD DEP BOUNDS" ON UNIT  40 AT TIME STEP  9, STRESS PERIOD   3

 SAVING SATURATED THICKNESS AND FLOW TERMS ON UNIT  333 FOR MT3DMS
 BY THE LINK-MT3DMS PACKAGE V7 AT TIME STEP    9, STRESS PERIOD    3


 HEAD WILL BE SAVED ON UNIT    2 AT END OF TIME STEP    9, STRESS PERIOD    3

 DRAWDOWN WILL BE SAVED ON UNIT   13 AT END OF TIME STEP    9, STRESS PERIOD    3
1
  VOLUMETRIC BUDGET FOR ENTIRE MODEL AT END OF TIME STEP    9, STRESS PERIOD   3
  ------------------------------------------------------------------------------

     CUMULATIVE VOLUMES      L**3       RATES FOR THIS TIME STEP      L**3/T
     ------------------                 ------------------------

           IN:                                      IN:
           ---                                      ---
             STORAGE     =          66.8052               STORAGE     =       1.6243E-09
       CONSTANT HEAD     =           0.0000         CONSTANT HEAD     =           0.0000
              DRAINS     =           0.0000                DRAINS     =           0.0000
     HEAD DEP BOUNDS     =         762.1478       HEAD DEP BOUNDS     =          34.9715

                TOTAL IN =         828.9530                  TOTAL IN =          34.9715

          OUT:                                     OUT:
          ----                                     ----
             STORAGE     =          59.2044               STORAGE     =       2.8329E-04
       CONSTANT HEAD     =           0.0000         CONSTANT HEAD     =           0.0000
              DRAINS     =         756.9537                DRAINS     =          34.9688
     HEAD DEP BOUNDS     =          12.8346       HEAD DEP BOUNDS     =           0.0000

               TOTAL OUT =         828.9927                 TOTAL OUT =          34.9691

                IN - OUT =      -3.9734E-02                  IN - OUT =       2.4223E-03

     PERCENT DISCREPANCY =          -0.00         PERCENT DISCREPANCY =           0.01






         TIME SUMMARY AT END OF TIME STEP    9 IN STRESS PERIOD    3
                    SECONDS     MINUTES      HOURS       DAYS        YEARS
                    -----------------------------------------------------------
   TIME STEP LENGTH  86400.      1440.0      24.000      1.0000     2.73785E-03
 STRESS PERIOD TIME 7.77600E+05  12960.      216.00      9.0000     2.46407E-02
         TOTAL TIME 2.50560E+06  41760.      696.00      29.000     7.93977E-02
1
 
 SOLVING FOR HEAD 
                                                   Max.-Head-Change                         Max.-Flux-Residual
  Residual-Control   Outer-Iter.   Inner-Iter.     Column Row Layer    Maximum-Head-Change  Column Row Layer    Maximum-Flux-Residual          L2-NORM 
          0                 1           1            39    1    10       0.1768489357E-04      38    1   10         0.1663119937E-04      0.1103440727E-03

    ------------------------------------------------
       NWT REQUIRED            1 OUTER ITERATIONS 
       AND A TOTAL OF          1 INNER ITERATIONS.
    ------------------------------------------------

 OUTPUT CONTROL FOR STRESS PERIOD    3   TIME STEP   10
    PRINT BUDGET
    SAVE HEAD FOR ALL LAYERS
    SAVE DRAWDOWN FOR ALL LAYERS
    SAVE BUDGET
 UBDSV1 SAVING "         STORAGE" ON UNIT  40 AT TIME STEP 10, STRESS PERIOD   3
 UBDSV2 SAVING "   CONSTANT HEAD" ON UNIT  40 AT TIME STEP 10, STRESS PERIOD   3
 UBDSV1 SAVING "FLOW RIGHT FACE " ON UNIT  40 AT TIME STEP 10, STRESS PERIOD   3
 UBDSV1 SAVING "FLOW LOWER FACE " ON UNIT  40 AT TIME STEP 10, STRESS PERIOD   3
 UBDSV4 SAVING "          DRAINS" ON UNIT  40 AT TIME STEP 10, STRESS PERIOD   3
 UBDSV4 SAVING " HEAD DEP BOUNDS" ON UNIT  40 AT TIME STEP 10, STRESS PERIOD   3

 SAVING SATURATED THICKNESS AND FLOW TERMS ON UNIT  333 FOR MT3DMS
 BY THE LINK-MT3DMS PACKAGE V7 AT TIME STEP   10, STRESS PERIOD    3


 HEAD WILL BE SAVED ON UNIT    2 AT END OF TIME STEP   10, STRESS PERIOD    3

 DRAWDOWN WILL BE SAVED ON UNIT   13 AT END OF TIME STEP   10, STRESS PERIOD    3
1
  VOLUMETRIC BUDGET FOR ENTIRE MODEL AT END OF TIME STEP   10, STRESS PERIOD   3
  ------------------------------------------------------------------------------

     CUMULATIVE VOLUMES      L**3       RATES FOR THIS TIME STEP      L**3/T
     ------------------                 ------------------------

           IN:                                      IN:
           ---                                      ---
             STORAGE     =          66.8052               STORAGE     =       6.4418E-09
       CONSTANT HEAD     =           0.0000         CONSTANT HEAD     =           0.0000
              DRAINS     =           0.0000                DRAINS     =           0.0000
     HEAD DEP BOUNDS     =         797.1192       HEAD DEP BOUNDS     =          34.9714

                TOTAL IN =         863.9244                  TOTAL IN =          34.9714

          OUT:                                     OUT:
          ----                                     ----
             STORAGE     =          59.2044               STORAGE     =       2.6264E-05
       CONSTANT HEAD     =           0.0000         CONSTANT HEAD     =           0.0000
              DRAINS     =         791.9225                DRAINS     =          34.9688
     HEAD DEP BOUNDS     =          12.8346       HEAD DEP BOUNDS     =           0.0000

               TOTAL OUT =         863.9616                 TOTAL OUT =          34.9688

                IN - OUT =      -3.7170E-02                  IN - OUT =       2.5978E-03

     PERCENT DISCREPANCY =          -0.00         PERCENT DISCREPANCY =           0.01






         TIME SUMMARY AT END OF TIME STEP   10 IN STRESS PERIOD    3
                    SECONDS     MINUTES      HOURS       DAYS        YEARS
                    -----------------------------------------------------------
   TIME STEP LENGTH  86400.      1440.0      24.000      1.0000     2.73785E-03
 STRESS PERIOD TIME 8.64000E+05  14400.      240.00      10.000     2.73785E-02
         TOTAL TIME 2.59200E+06  43200.      720.00      30.000     8.21355E-02
1

 Run end date and time (yyyy/mm/dd hh:mm:ss): 2023/05/24 22:48:22
 Elapsed run time:  1.056 Seconds

