                                  MODFLOW-NWT-SWR1 
      U.S. GEOLOGICAL SURVEY MODULAR FINITE-DIFFERENCE GROUNDWATER-FLOW MODEL
                            VERSION 1.2.0 03/01/2020
                    BASED ON MODFLOW-2005 VERSION 1.12.00 02/03/2017

 LIST FILE: case3.out
                         UNIT    1

 OPENING case3.hed
 FILE TYPE:DATA(BINARY)   UNIT    2   STATUS:UNKNOWN
 FORMAT:BINARY                 ACCESS:SEQUENTIAL          

 OPENING case3.drw
 FILE TYPE:DATA(BINARY)   UNIT   14   STATUS:UNKNOWN
 FORMAT:BINARY                 ACCESS:SEQUENTIAL          

 OPENING case3.ccf
 FILE TYPE:DATA(BINARY)   UNIT   40   STATUS:UNKNOWN
 FORMAT:BINARY                 ACCESS:SEQUENTIAL          

 OPENING case3.lmt6
 FILE TYPE:LMT6   UNIT    3   STATUS:OLD    
 FORMAT:FORMATTED              ACCESS:SEQUENTIAL          

 OPENING case3.dis
 FILE TYPE:DIS   UNIT    4   STATUS:OLD    
 FORMAT:FORMATTED              ACCESS:SEQUENTIAL          

 OPENING case3.ba6
 FILE TYPE:BAS6   UNIT    7   STATUS:OLD    
 FORMAT:FORMATTED              ACCESS:SEQUENTIAL          

 OPENING case3.upw
 FILE TYPE:UPW   UNIT    8   STATUS:OLD    
 FORMAT:FORMATTED              ACCESS:SEQUENTIAL          

 OPENING case3.oc
 FILE TYPE:OC   UNIT    9   STATUS:OLD    
 FORMAT:FORMATTED              ACCESS:SEQUENTIAL          

 OPENING case3.wel
 FILE TYPE:WEL   UNIT   10   STATUS:OLD    
 FORMAT:FORMATTED              ACCESS:SEQUENTIAL          

 OPENING case3.drn
 FILE TYPE:DRN   UNIT   11   STATUS:OLD    
 FORMAT:FORMATTED              ACCESS:SEQUENTIAL          

 OPENING case3.ghb
 FILE TYPE:GHB   UNIT   12   STATUS:OLD    
 FORMAT:FORMATTED              ACCESS:SEQUENTIAL          

 OPENING case3.nwt
 FILE TYPE:NWT   UNIT   13   STATUS:OLD    
 FORMAT:FORMATTED              ACCESS:SEQUENTIAL          

 BAS -- BASIC PACKAGE, VERSION 1.2.0, 3/01/2020 INPUT READ FROM UNIT    7
 
 MODFLOW was compiled using mixed precision
 Precision of REAL variables:           6
 Precision of DOUBLE PRECISION variables:          15

 DISCRETIZATION INPUT DATA READ FROM UNIT    4
 # MF2K DISCRETIZATION FILE
 #
 #
 # NLAY NROW NCOL NPER TIMEUNITS LENUNITS
   40 LAYERS         1 ROWS       100 COLUMNS
    3 STRESS PERIOD(S) IN SIMULATION
 MODEL TIME UNIT IS DAYS
 MODEL LENGTH UNIT IS METERS
  Confining bed flag for each layer:
   0   0   0   0   0   0   0   0   0   0   0   0   0   0   0   0   0   0   0   0
   0   0   0   0   0   0   0   0   0   0   0   0   0   0   0   0   0   0   0   0

                     DELR =   1.00000    

                     DELC =   1.00000    

 TOP ELEVATION OF LAYER 1 =   40.0000    



             MODEL LAYER BOTTOM EL. FOR LAYER   1
 READING ON UNIT    4 WITH FORMAT: (FREE)              

   MODEL LAYER BOTTOM EL. =   38.0000     FOR LAYER   2



             MODEL LAYER BOTTOM EL. FOR LAYER   3
 READING ON UNIT    4 WITH FORMAT: (FREE)              

   MODEL LAYER BOTTOM EL. =   36.0000     FOR LAYER   4



             MODEL LAYER BOTTOM EL. FOR LAYER   5
 READING ON UNIT    4 WITH FORMAT: (FREE)              

   MODEL LAYER BOTTOM EL. =   34.0000     FOR LAYER   6



             MODEL LAYER BOTTOM EL. FOR LAYER   7
 READING ON UNIT    4 WITH FORMAT: (FREE)              

   MODEL LAYER BOTTOM EL. =   32.0000     FOR LAYER   8



             MODEL LAYER BOTTOM EL. FOR LAYER   9
 READING ON UNIT    4 WITH FORMAT: (FREE)              

   MODEL LAYER BOTTOM EL. =   30.0000     FOR LAYER  10



             MODEL LAYER BOTTOM EL. FOR LAYER  11
 READING ON UNIT    4 WITH FORMAT: (FREE)              

   MODEL LAYER BOTTOM EL. =   28.0000     FOR LAYER  12



             MODEL LAYER BOTTOM EL. FOR LAYER  13
 READING ON UNIT    4 WITH FORMAT: (FREE)              

   MODEL LAYER BOTTOM EL. =   26.0000     FOR LAYER  14



             MODEL LAYER BOTTOM EL. FOR LAYER  15
 READING ON UNIT    4 WITH FORMAT: (FREE)              

   MODEL LAYER BOTTOM EL. =   24.0000     FOR LAYER  16



             MODEL LAYER BOTTOM EL. FOR LAYER  17
 READING ON UNIT    4 WITH FORMAT: (FREE)              

   MODEL LAYER BOTTOM EL. =   22.0000     FOR LAYER  18



             MODEL LAYER BOTTOM EL. FOR LAYER  19
 READING ON UNIT    4 WITH FORMAT: (FREE)              

   MODEL LAYER BOTTOM EL. =   20.0000     FOR LAYER  20



             MODEL LAYER BOTTOM EL. FOR LAYER  21
 READING ON UNIT    4 WITH FORMAT: (FREE)              

   MODEL LAYER BOTTOM EL. =   18.0000     FOR LAYER  22



             MODEL LAYER BOTTOM EL. FOR LAYER  23
 READING ON UNIT    4 WITH FORMAT: (FREE)              

   MODEL LAYER BOTTOM EL. =   16.0000     FOR LAYER  24



             MODEL LAYER BOTTOM EL. FOR LAYER  25
 READING ON UNIT    4 WITH FORMAT: (FREE)              

   MODEL LAYER BOTTOM EL. =   14.0000     FOR LAYER  26



             MODEL LAYER BOTTOM EL. FOR LAYER  27
 READING ON UNIT    4 WITH FORMAT: (FREE)              

   MODEL LAYER BOTTOM EL. =   12.0000     FOR LAYER  28



             MODEL LAYER BOTTOM EL. FOR LAYER  29
 READING ON UNIT    4 WITH FORMAT: (FREE)              

   MODEL LAYER BOTTOM EL. =   10.0000     FOR LAYER  30



             MODEL LAYER BOTTOM EL. FOR LAYER  31
 READING ON UNIT    4 WITH FORMAT: (FREE)              

   MODEL LAYER BOTTOM EL. =   8.00000     FOR LAYER  32



             MODEL LAYER BOTTOM EL. FOR LAYER  33
 READING ON UNIT    4 WITH FORMAT: (FREE)              

   MODEL LAYER BOTTOM EL. =   6.00000     FOR LAYER  34



             MODEL LAYER BOTTOM EL. FOR LAYER  35
 READING ON UNIT    4 WITH FORMAT: (FREE)              

   MODEL LAYER BOTTOM EL. =   4.00000     FOR LAYER  36



             MODEL LAYER BOTTOM EL. FOR LAYER  37
 READING ON UNIT    4 WITH FORMAT: (FREE)              

   MODEL LAYER BOTTOM EL. =   2.00000     FOR LAYER  38



             MODEL LAYER BOTTOM EL. FOR LAYER  39
 READING ON UNIT    4 WITH FORMAT: (FREE)              

   MODEL LAYER BOTTOM EL. =   0.00000     FOR LAYER  40


 STRESS PERIOD     LENGTH       TIME STEPS     MULTIPLIER FOR DELT    SS FLAG
 ----------------------------------------------------------------------------
        1         10.00000         10                    1.000         TR
        2         10.00000         10                    1.000         TR
        3         10.00000         10                    1.000         TR

 TRANSIENT SIMULATION



 
 THE FREE FORMAT OPTION HAS BEEN SELECTED



                     BOUNDARY ARRAY FOR LAYER   1
 READING ON UNIT    7 WITH FORMAT: (FREE)              



                     BOUNDARY ARRAY FOR LAYER   2
 READING ON UNIT    7 WITH FORMAT: (FREE)              



                     BOUNDARY ARRAY FOR LAYER   3
 READING ON UNIT    7 WITH FORMAT: (FREE)              



                     BOUNDARY ARRAY FOR LAYER   4
 READING ON UNIT    7 WITH FORMAT: (FREE)              



                     BOUNDARY ARRAY FOR LAYER   5
 READING ON UNIT    7 WITH FORMAT: (FREE)              



                     BOUNDARY ARRAY FOR LAYER   6
 READING ON UNIT    7 WITH FORMAT: (FREE)              



                     BOUNDARY ARRAY FOR LAYER   7
 READING ON UNIT    7 WITH FORMAT: (FREE)              



                     BOUNDARY ARRAY FOR LAYER   8
 READING ON UNIT    7 WITH FORMAT: (FREE)              



                     BOUNDARY ARRAY FOR LAYER   9
 READING ON UNIT    7 WITH FORMAT: (FREE)              



                     BOUNDARY ARRAY FOR LAYER  10
 READING ON UNIT    7 WITH FORMAT: (FREE)              



                     BOUNDARY ARRAY FOR LAYER  11
 READING ON UNIT    7 WITH FORMAT: (FREE)              



                     BOUNDARY ARRAY FOR LAYER  12
 READING ON UNIT    7 WITH FORMAT: (FREE)              



                     BOUNDARY ARRAY FOR LAYER  13
 READING ON UNIT    7 WITH FORMAT: (FREE)              



                     BOUNDARY ARRAY FOR LAYER  14
 READING ON UNIT    7 WITH FORMAT: (FREE)              



                     BOUNDARY ARRAY FOR LAYER  15
 READING ON UNIT    7 WITH FORMAT: (FREE)              



                     BOUNDARY ARRAY FOR LAYER  16
 READING ON UNIT    7 WITH FORMAT: (FREE)              



                     BOUNDARY ARRAY FOR LAYER  17
 READING ON UNIT    7 WITH FORMAT: (FREE)              



                     BOUNDARY ARRAY FOR LAYER  18
 READING ON UNIT    7 WITH FORMAT: (FREE)              



                     BOUNDARY ARRAY FOR LAYER  19
 READING ON UNIT    7 WITH FORMAT: (FREE)              



                     BOUNDARY ARRAY FOR LAYER  20
 READING ON UNIT    7 WITH FORMAT: (FREE)              



                     BOUNDARY ARRAY FOR LAYER  21
 READING ON UNIT    7 WITH FORMAT: (FREE)              



                     BOUNDARY ARRAY FOR LAYER  22
 READING ON UNIT    7 WITH FORMAT: (FREE)              



                     BOUNDARY ARRAY FOR LAYER  23
 READING ON UNIT    7 WITH FORMAT: (FREE)              



                     BOUNDARY ARRAY FOR LAYER  24
 READING ON UNIT    7 WITH FORMAT: (FREE)              



                     BOUNDARY ARRAY FOR LAYER  25
 READING ON UNIT    7 WITH FORMAT: (FREE)              



                     BOUNDARY ARRAY FOR LAYER  26
 READING ON UNIT    7 WITH FORMAT: (FREE)              



                     BOUNDARY ARRAY FOR LAYER  27
 READING ON UNIT    7 WITH FORMAT: (FREE)              



                     BOUNDARY ARRAY FOR LAYER  28
 READING ON UNIT    7 WITH FORMAT: (FREE)              



                     BOUNDARY ARRAY FOR LAYER  29
 READING ON UNIT    7 WITH FORMAT: (FREE)              



                     BOUNDARY ARRAY FOR LAYER  30
 READING ON UNIT    7 WITH FORMAT: (FREE)              



                     BOUNDARY ARRAY FOR LAYER  31
 READING ON UNIT    7 WITH FORMAT: (FREE)              



                     BOUNDARY ARRAY FOR LAYER  32
 READING ON UNIT    7 WITH FORMAT: (FREE)              



                     BOUNDARY ARRAY FOR LAYER  33
 READING ON UNIT    7 WITH FORMAT: (FREE)              



                     BOUNDARY ARRAY FOR LAYER  34
 READING ON UNIT    7 WITH FORMAT: (FREE)              



                     BOUNDARY ARRAY FOR LAYER  35
 READING ON UNIT    7 WITH FORMAT: (FREE)              



                     BOUNDARY ARRAY FOR LAYER  36
 READING ON UNIT    7 WITH FORMAT: (FREE)              



                     BOUNDARY ARRAY FOR LAYER  37
 READING ON UNIT    7 WITH FORMAT: (FREE)              



                     BOUNDARY ARRAY FOR LAYER  38
 READING ON UNIT    7 WITH FORMAT: (FREE)              



                     BOUNDARY ARRAY FOR LAYER  39
 READING ON UNIT    7 WITH FORMAT: (FREE)              

           BOUNDARY ARRAY =              1 FOR LAYER  40

 AQUIFER HEAD WILL BE SET TO  -999.00     AT ALL NO-FLOW NODES (IBOUND=0).



                       INITIAL HEAD FOR LAYER   1
 READING ON UNIT    7 WITH FORMAT: (FREE)              



                       INITIAL HEAD FOR LAYER   2
 READING ON UNIT    7 WITH FORMAT: (FREE)              

             INITIAL HEAD =   38.0000     FOR LAYER   3



                       INITIAL HEAD FOR LAYER   4
 READING ON UNIT    7 WITH FORMAT: (FREE)              



                       INITIAL HEAD FOR LAYER   5
 READING ON UNIT    7 WITH FORMAT: (FREE)              



                       INITIAL HEAD FOR LAYER   6
 READING ON UNIT    7 WITH FORMAT: (FREE)              



                       INITIAL HEAD FOR LAYER   7
 READING ON UNIT    7 WITH FORMAT: (FREE)              



                       INITIAL HEAD FOR LAYER   8
 READING ON UNIT    7 WITH FORMAT: (FREE)              



                       INITIAL HEAD FOR LAYER   9
 READING ON UNIT    7 WITH FORMAT: (FREE)              



                       INITIAL HEAD FOR LAYER  10
 READING ON UNIT    7 WITH FORMAT: (FREE)              



                       INITIAL HEAD FOR LAYER  11
 READING ON UNIT    7 WITH FORMAT: (FREE)              



                       INITIAL HEAD FOR LAYER  12
 READING ON UNIT    7 WITH FORMAT: (FREE)              



                       INITIAL HEAD FOR LAYER  13
 READING ON UNIT    7 WITH FORMAT: (FREE)              



                       INITIAL HEAD FOR LAYER  14
 READING ON UNIT    7 WITH FORMAT: (FREE)              



                       INITIAL HEAD FOR LAYER  15
 READING ON UNIT    7 WITH FORMAT: (FREE)              



                       INITIAL HEAD FOR LAYER  16
 READING ON UNIT    7 WITH FORMAT: (FREE)              



                       INITIAL HEAD FOR LAYER  17
 READING ON UNIT    7 WITH FORMAT: (FREE)              



                       INITIAL HEAD FOR LAYER  18
 READING ON UNIT    7 WITH FORMAT: (FREE)              



                       INITIAL HEAD FOR LAYER  19
 READING ON UNIT    7 WITH FORMAT: (FREE)              



                       INITIAL HEAD FOR LAYER  20
 READING ON UNIT    7 WITH FORMAT: (FREE)              



                       INITIAL HEAD FOR LAYER  21
 READING ON UNIT    7 WITH FORMAT: (FREE)              



                       INITIAL HEAD FOR LAYER  22
 READING ON UNIT    7 WITH FORMAT: (FREE)              



                       INITIAL HEAD FOR LAYER  23
 READING ON UNIT    7 WITH FORMAT: (FREE)              



                       INITIAL HEAD FOR LAYER  24
 READING ON UNIT    7 WITH FORMAT: (FREE)              



                       INITIAL HEAD FOR LAYER  25
 READING ON UNIT    7 WITH FORMAT: (FREE)              



                       INITIAL HEAD FOR LAYER  26
 READING ON UNIT    7 WITH FORMAT: (FREE)              



                       INITIAL HEAD FOR LAYER  27
 READING ON UNIT    7 WITH FORMAT: (FREE)              



                       INITIAL HEAD FOR LAYER  28
 READING ON UNIT    7 WITH FORMAT: (FREE)              



                       INITIAL HEAD FOR LAYER  29
 READING ON UNIT    7 WITH FORMAT: (FREE)              



                       INITIAL HEAD FOR LAYER  30
 READING ON UNIT    7 WITH FORMAT: (FREE)              



                       INITIAL HEAD FOR LAYER  31
 READING ON UNIT    7 WITH FORMAT: (FREE)              



                       INITIAL HEAD FOR LAYER  32
 READING ON UNIT    7 WITH FORMAT: (FREE)              



                       INITIAL HEAD FOR LAYER  33
 READING ON UNIT    7 WITH FORMAT: (FREE)              



                       INITIAL HEAD FOR LAYER  34
 READING ON UNIT    7 WITH FORMAT: (FREE)              



                       INITIAL HEAD FOR LAYER  35
 READING ON UNIT    7 WITH FORMAT: (FREE)              



                       INITIAL HEAD FOR LAYER  36
 READING ON UNIT    7 WITH FORMAT: (FREE)              



                       INITIAL HEAD FOR LAYER  37
 READING ON UNIT    7 WITH FORMAT: (FREE)              



                       INITIAL HEAD FOR LAYER  38
 READING ON UNIT    7 WITH FORMAT: (FREE)              



                       INITIAL HEAD FOR LAYER  39
 READING ON UNIT    7 WITH FORMAT: (FREE)              

             INITIAL HEAD =   38.0000     FOR LAYER  40

 OUTPUT CONTROL IS SPECIFIED ONLY AT TIME STEPS FOR WHICH OUTPUT IS DESIRED
 COMPACT CELL-BY-CELL BUDGET FILES WILL BE WRITTEN
 AUXILIARY DATA WILL BE SAVED IN CELL-BY-CELL BUDGET FILES
 HEAD PRINT FORMAT CODE IS   0    DRAWDOWN PRINT FORMAT CODE IS   0
 HEADS WILL BE SAVED ON UNIT    2    DRAWDOWNS WILL BE SAVED ON UNIT   14
 #

 NWT1 -- Newton Solver, VERSION 1.2.0, 3/01/2020
         INPUT READ FROM UNIT 13

 SIMPLE OPTION:
 DEFAULT SOLVER INPUT VALUES REFLECT NEARLY LINEAR MODEL
 ***XMD linear solver will be used***
 
   CONVERGENCE CRITERION OF   0.100000E-03 FOR HEAD SOLUTION
   AND A TOLERANCE OF   0.100000E-03 FOR FLOW SOLUTION AND 
   A MAXIMUM OF  5000 OUTER ITERATIONS. 


   D-B-D REDUCTION FACTOR OF    0.970000E+00 AND 
   A D-B-D INCREASE FACTOR OF    0.100000E-03 AND 
   A D-B-D RELAXATION OF    0.000000E+00 AND 
   A MOMENTUM FACTOR OF    0.000000E+00 .


 ***BACKTRACKING IS INACTIVE***
 XMD -- LINEAR SOLUTION BY XMD PACKAGE VERSION 1.30
     BY MOTOMU IBARAKI, OHIO STATE UNIVERSITY, COLOMBUS, OH
                 INPUT READ FROM UNIT 13
 ACCELERATION METHOD                    (IACL) =         1
 NODE ORDERING FLAG                   (NORDER) =         0
 LEVEL OF FILL                         (LEVEL) =         1
 MAXIMUM NUMBER OF ORTHOGONALIZATIONS  (NORTH) =         5
 INDEX FOR USING REDUCED SYSTEM      (IREDSYS) =         1
 RESID. REDUCTION CONVERGE CRITERION  (RRCTOL) =  0.000000E+00
 INDEX FOR USING DROP TOLERANCE     (IDROPTOL) =         1
 DROP TOLERANCE VALUE                  (EPSRN) =  0.500000E-02
 CONVERGENCE CRITERIA OF           (HCLOSEXMD) =  0.100000E-02
 MAX. NUMBER OF LINEAR ITERATIONS  (MXITERXMD) =        50


 UPW1 -- UPSTREAM WEIGHTING FLOW PACKAGE, VERSION 1.2.0, 3/01/2020
         INPUT READ FROM UNIT  8

 CELL-BY-CELL FLOWS WILL BE SAVED ON UNIT   40
 No named parameters

   LAYER FLAGS:
 LAYER       LAYTYP          LAYAVG    CHANI           LAYVKA           LAYWET
 ---------------------------------------------------------------------------
    1             1             0    -1.000E+00             1             0
    2             1             0    -1.000E+00             1             0
    3             1             0    -1.000E+00             1             0
    4             1             0    -1.000E+00             1             0
    5             1             0    -1.000E+00             1             0
    6             1             0    -1.000E+00             1             0
    7             1             0    -1.000E+00             1             0
    8             1             0    -1.000E+00             1             0
    9             1             0    -1.000E+00             1             0
   10             1             0    -1.000E+00             1             0
   11             1             0    -1.000E+00             1             0
   12             1             0    -1.000E+00             1             0
   13             1             0    -1.000E+00             1             0
   14             1             0    -1.000E+00             1             0
   15             1             0    -1.000E+00             1             0
   16             1             0    -1.000E+00             1             0
   17             1             0    -1.000E+00             1             0
   18             1             0    -1.000E+00             1             0
   19             1             0    -1.000E+00             1             0
   20             1             0    -1.000E+00             1             0
   21             1             0    -1.000E+00             1             0
   22             1             0    -1.000E+00             1             0
   23             1             0    -1.000E+00             1             0
   24             1             0    -1.000E+00             1             0
   25             1             0    -1.000E+00             1             0
   26             1             0    -1.000E+00             1             0
   27             1             0    -1.000E+00             1             0
   28             1             0    -1.000E+00             1             0
   29             1             0    -1.000E+00             1             0
   30             1             0    -1.000E+00             1             0
   31             1             0    -1.000E+00             1             0
   32             1             0    -1.000E+00             1             0
   33             1             0    -1.000E+00             1             0
   34             1             0    -1.000E+00             1             0
   35             1             0    -1.000E+00             1             0
   36             1             0    -1.000E+00             1             0
   37             1             0    -1.000E+00             1             0
   38             1             0    -1.000E+00             1             0
   39             1             0    -1.000E+00             1             0
   40             1             0    -1.000E+00             1             0

   INTERPRETATION OF LAYER FLAGS:
                        INTERBLOCK     HORIZONTAL    DATA IN
         LAYER TYPE   TRANSMISSIVITY   ANISOTROPY   ARRAY VKA   WETTABILITY
 LAYER   (LAYTYP)        (LAYAVG)      (CHANI)     (LAYVKA)       (LAYWET)
 ---------------------------------------------------------------------------
    1   CONVERTIBLE      HARMONIC      VARIABLE    ANISOTROPY  NON-WETTABLE
    2   CONVERTIBLE      HARMONIC      VARIABLE    ANISOTROPY  NON-WETTABLE
    3   CONVERTIBLE      HARMONIC      VARIABLE    ANISOTROPY  NON-WETTABLE
    4   CONVERTIBLE      HARMONIC      VARIABLE    ANISOTROPY  NON-WETTABLE
    5   CONVERTIBLE      HARMONIC      VARIABLE    ANISOTROPY  NON-WETTABLE
    6   CONVERTIBLE      HARMONIC      VARIABLE    ANISOTROPY  NON-WETTABLE
    7   CONVERTIBLE      HARMONIC      VARIABLE    ANISOTROPY  NON-WETTABLE
    8   CONVERTIBLE      HARMONIC      VARIABLE    ANISOTROPY  NON-WETTABLE
    9   CONVERTIBLE      HARMONIC      VARIABLE    ANISOTROPY  NON-WETTABLE
   10   CONVERTIBLE      HARMONIC      VARIABLE    ANISOTROPY  NON-WETTABLE
   11   CONVERTIBLE      HARMONIC      VARIABLE    ANISOTROPY  NON-WETTABLE
   12   CONVERTIBLE      HARMONIC      VARIABLE    ANISOTROPY  NON-WETTABLE
   13   CONVERTIBLE      HARMONIC      VARIABLE    ANISOTROPY  NON-WETTABLE
   14   CONVERTIBLE      HARMONIC      VARIABLE    ANISOTROPY  NON-WETTABLE
   15   CONVERTIBLE      HARMONIC      VARIABLE    ANISOTROPY  NON-WETTABLE
   16   CONVERTIBLE      HARMONIC      VARIABLE    ANISOTROPY  NON-WETTABLE
   17   CONVERTIBLE      HARMONIC      VARIABLE    ANISOTROPY  NON-WETTABLE
   18   CONVERTIBLE      HARMONIC      VARIABLE    ANISOTROPY  NON-WETTABLE
   19   CONVERTIBLE      HARMONIC      VARIABLE    ANISOTROPY  NON-WETTABLE
   20   CONVERTIBLE      HARMONIC      VARIABLE    ANISOTROPY  NON-WETTABLE
   21   CONVERTIBLE      HARMONIC      VARIABLE    ANISOTROPY  NON-WETTABLE
   22   CONVERTIBLE      HARMONIC      VARIABLE    ANISOTROPY  NON-WETTABLE
   23   CONVERTIBLE      HARMONIC      VARIABLE    ANISOTROPY  NON-WETTABLE
   24   CONVERTIBLE      HARMONIC      VARIABLE    ANISOTROPY  NON-WETTABLE
   25   CONVERTIBLE      HARMONIC      VARIABLE    ANISOTROPY  NON-WETTABLE
   26   CONVERTIBLE      HARMONIC      VARIABLE    ANISOTROPY  NON-WETTABLE
   27   CONVERTIBLE      HARMONIC      VARIABLE    ANISOTROPY  NON-WETTABLE
   28   CONVERTIBLE      HARMONIC      VARIABLE    ANISOTROPY  NON-WETTABLE
   29   CONVERTIBLE      HARMONIC      VARIABLE    ANISOTROPY  NON-WETTABLE
   30   CONVERTIBLE      HARMONIC      VARIABLE    ANISOTROPY  NON-WETTABLE
   31   CONVERTIBLE      HARMONIC      VARIABLE    ANISOTROPY  NON-WETTABLE
   32   CONVERTIBLE      HARMONIC      VARIABLE    ANISOTROPY  NON-WETTABLE
   33   CONVERTIBLE      HARMONIC      VARIABLE    ANISOTROPY  NON-WETTABLE
   34   CONVERTIBLE      HARMONIC      VARIABLE    ANISOTROPY  NON-WETTABLE
   35   CONVERTIBLE      HARMONIC      VARIABLE    ANISOTROPY  NON-WETTABLE
   36   CONVERTIBLE      HARMONIC      VARIABLE    ANISOTROPY  NON-WETTABLE
   37   CONVERTIBLE      HARMONIC      VARIABLE    ANISOTROPY  NON-WETTABLE
   38   CONVERTIBLE      HARMONIC      VARIABLE    ANISOTROPY  NON-WETTABLE
   39   CONVERTIBLE      HARMONIC      VARIABLE    ANISOTROPY  NON-WETTABLE
   40   CONVERTIBLE      HARMONIC      VARIABLE    ANISOTROPY  NON-WETTABLE



              HYD. COND. ALONG ROWS FOR LAYER   1
 READING ON UNIT    8 WITH FORMAT: (FREE)              

   HORIZ. ANI. (COL./ROW) =   1.00000     FOR LAYER   1



            HORIZ. TO VERTICAL ANI. FOR LAYER   1
 READING ON UNIT    8 WITH FORMAT: (FREE)              



                   SPECIFIC STORAGE FOR LAYER   1
 READING ON UNIT    8 WITH FORMAT: (FREE)              



                     SPECIFIC YIELD FOR LAYER   1
 READING ON UNIT    8 WITH FORMAT: (FREE)              



              HYD. COND. ALONG ROWS FOR LAYER   2
 READING ON UNIT    8 WITH FORMAT: (FREE)              

   HORIZ. ANI. (COL./ROW) =   1.00000     FOR LAYER   2



            HORIZ. TO VERTICAL ANI. FOR LAYER   2
 READING ON UNIT    8 WITH FORMAT: (FREE)              



                   SPECIFIC STORAGE FOR LAYER   2
 READING ON UNIT    8 WITH FORMAT: (FREE)              



                     SPECIFIC YIELD FOR LAYER   2
 READING ON UNIT    8 WITH FORMAT: (FREE)              



              HYD. COND. ALONG ROWS FOR LAYER   3
 READING ON UNIT    8 WITH FORMAT: (FREE)              

   HORIZ. ANI. (COL./ROW) =   1.00000     FOR LAYER   3



            HORIZ. TO VERTICAL ANI. FOR LAYER   3
 READING ON UNIT    8 WITH FORMAT: (FREE)              



                   SPECIFIC STORAGE FOR LAYER   3
 READING ON UNIT    8 WITH FORMAT: (FREE)              



                     SPECIFIC YIELD FOR LAYER   3
 READING ON UNIT    8 WITH FORMAT: (FREE)              



              HYD. COND. ALONG ROWS FOR LAYER   4
 READING ON UNIT    8 WITH FORMAT: (FREE)              

   HORIZ. ANI. (COL./ROW) =   1.00000     FOR LAYER   4



            HORIZ. TO VERTICAL ANI. FOR LAYER   4
 READING ON UNIT    8 WITH FORMAT: (FREE)              



                   SPECIFIC STORAGE FOR LAYER   4
 READING ON UNIT    8 WITH FORMAT: (FREE)              



                     SPECIFIC YIELD FOR LAYER   4
 READING ON UNIT    8 WITH FORMAT: (FREE)              



              HYD. COND. ALONG ROWS FOR LAYER   5
 READING ON UNIT    8 WITH FORMAT: (FREE)              

   HORIZ. ANI. (COL./ROW) =   1.00000     FOR LAYER   5



            HORIZ. TO VERTICAL ANI. FOR LAYER   5
 READING ON UNIT    8 WITH FORMAT: (FREE)              



                   SPECIFIC STORAGE FOR LAYER   5
 READING ON UNIT    8 WITH FORMAT: (FREE)              



                     SPECIFIC YIELD FOR LAYER   5
 READING ON UNIT    8 WITH FORMAT: (FREE)              



              HYD. COND. ALONG ROWS FOR LAYER   6
 READING ON UNIT    8 WITH FORMAT: (FREE)              

   HORIZ. ANI. (COL./ROW) =   1.00000     FOR LAYER   6



            HORIZ. TO VERTICAL ANI. FOR LAYER   6
 READING ON UNIT    8 WITH FORMAT: (FREE)              



                   SPECIFIC STORAGE FOR LAYER   6
 READING ON UNIT    8 WITH FORMAT: (FREE)              



                     SPECIFIC YIELD FOR LAYER   6
 READING ON UNIT    8 WITH FORMAT: (FREE)              



              HYD. COND. ALONG ROWS FOR LAYER   7
 READING ON UNIT    8 WITH FORMAT: (FREE)              

   HORIZ. ANI. (COL./ROW) =   1.00000     FOR LAYER   7



            HORIZ. TO VERTICAL ANI. FOR LAYER   7
 READING ON UNIT    8 WITH FORMAT: (FREE)              



                   SPECIFIC STORAGE FOR LAYER   7
 READING ON UNIT    8 WITH FORMAT: (FREE)              



                     SPECIFIC YIELD FOR LAYER   7
 READING ON UNIT    8 WITH FORMAT: (FREE)              



              HYD. COND. ALONG ROWS FOR LAYER   8
 READING ON UNIT    8 WITH FORMAT: (FREE)              

   HORIZ. ANI. (COL./ROW) =   1.00000     FOR LAYER   8



            HORIZ. TO VERTICAL ANI. FOR LAYER   8
 READING ON UNIT    8 WITH FORMAT: (FREE)              



                   SPECIFIC STORAGE FOR LAYER   8
 READING ON UNIT    8 WITH FORMAT: (FREE)              



                     SPECIFIC YIELD FOR LAYER   8
 READING ON UNIT    8 WITH FORMAT: (FREE)              



              HYD. COND. ALONG ROWS FOR LAYER   9
 READING ON UNIT    8 WITH FORMAT: (FREE)              

   HORIZ. ANI. (COL./ROW) =   1.00000     FOR LAYER   9



            HORIZ. TO VERTICAL ANI. FOR LAYER   9
 READING ON UNIT    8 WITH FORMAT: (FREE)              



                   SPECIFIC STORAGE FOR LAYER   9
 READING ON UNIT    8 WITH FORMAT: (FREE)              



                     SPECIFIC YIELD FOR LAYER   9
 READING ON UNIT    8 WITH FORMAT: (FREE)              



              HYD. COND. ALONG ROWS FOR LAYER  10
 READING ON UNIT    8 WITH FORMAT: (FREE)              

   HORIZ. ANI. (COL./ROW) =   1.00000     FOR LAYER  10



            HORIZ. TO VERTICAL ANI. FOR LAYER  10
 READING ON UNIT    8 WITH FORMAT: (FREE)              



                   SPECIFIC STORAGE FOR LAYER  10
 READING ON UNIT    8 WITH FORMAT: (FREE)              



                     SPECIFIC YIELD FOR LAYER  10
 READING ON UNIT    8 WITH FORMAT: (FREE)              



              HYD. COND. ALONG ROWS FOR LAYER  11
 READING ON UNIT    8 WITH FORMAT: (FREE)              

   HORIZ. ANI. (COL./ROW) =   1.00000     FOR LAYER  11



            HORIZ. TO VERTICAL ANI. FOR LAYER  11
 READING ON UNIT    8 WITH FORMAT: (FREE)              



                   SPECIFIC STORAGE FOR LAYER  11
 READING ON UNIT    8 WITH FORMAT: (FREE)              



                     SPECIFIC YIELD FOR LAYER  11
 READING ON UNIT    8 WITH FORMAT: (FREE)              



              HYD. COND. ALONG ROWS FOR LAYER  12
 READING ON UNIT    8 WITH FORMAT: (FREE)              

   HORIZ. ANI. (COL./ROW) =   1.00000     FOR LAYER  12



            HORIZ. TO VERTICAL ANI. FOR LAYER  12
 READING ON UNIT    8 WITH FORMAT: (FREE)              



                   SPECIFIC STORAGE FOR LAYER  12
 READING ON UNIT    8 WITH FORMAT: (FREE)              



                     SPECIFIC YIELD FOR LAYER  12
 READING ON UNIT    8 WITH FORMAT: (FREE)              



              HYD. COND. ALONG ROWS FOR LAYER  13
 READING ON UNIT    8 WITH FORMAT: (FREE)              

   HORIZ. ANI. (COL./ROW) =   1.00000     FOR LAYER  13



            HORIZ. TO VERTICAL ANI. FOR LAYER  13
 READING ON UNIT    8 WITH FORMAT: (FREE)              



                   SPECIFIC STORAGE FOR LAYER  13
 READING ON UNIT    8 WITH FORMAT: (FREE)              



                     SPECIFIC YIELD FOR LAYER  13
 READING ON UNIT    8 WITH FORMAT: (FREE)              



              HYD. COND. ALONG ROWS FOR LAYER  14
 READING ON UNIT    8 WITH FORMAT: (FREE)              

   HORIZ. ANI. (COL./ROW) =   1.00000     FOR LAYER  14



            HORIZ. TO VERTICAL ANI. FOR LAYER  14
 READING ON UNIT    8 WITH FORMAT: (FREE)              



                   SPECIFIC STORAGE FOR LAYER  14
 READING ON UNIT    8 WITH FORMAT: (FREE)              



                     SPECIFIC YIELD FOR LAYER  14
 READING ON UNIT    8 WITH FORMAT: (FREE)              



              HYD. COND. ALONG ROWS FOR LAYER  15
 READING ON UNIT    8 WITH FORMAT: (FREE)              

   HORIZ. ANI. (COL./ROW) =   1.00000     FOR LAYER  15



            HORIZ. TO VERTICAL ANI. FOR LAYER  15
 READING ON UNIT    8 WITH FORMAT: (FREE)              



                   SPECIFIC STORAGE FOR LAYER  15
 READING ON UNIT    8 WITH FORMAT: (FREE)              



                     SPECIFIC YIELD FOR LAYER  15
 READING ON UNIT    8 WITH FORMAT: (FREE)              



              HYD. COND. ALONG ROWS FOR LAYER  16
 READING ON UNIT    8 WITH FORMAT: (FREE)              

   HORIZ. ANI. (COL./ROW) =   1.00000     FOR LAYER  16



            HORIZ. TO VERTICAL ANI. FOR LAYER  16
 READING ON UNIT    8 WITH FORMAT: (FREE)              



                   SPECIFIC STORAGE FOR LAYER  16
 READING ON UNIT    8 WITH FORMAT: (FREE)              



                     SPECIFIC YIELD FOR LAYER  16
 READING ON UNIT    8 WITH FORMAT: (FREE)              



              HYD. COND. ALONG ROWS FOR LAYER  17
 READING ON UNIT    8 WITH FORMAT: (FREE)              

   HORIZ. ANI. (COL./ROW) =   1.00000     FOR LAYER  17



            HORIZ. TO VERTICAL ANI. FOR LAYER  17
 READING ON UNIT    8 WITH FORMAT: (FREE)              



                   SPECIFIC STORAGE FOR LAYER  17
 READING ON UNIT    8 WITH FORMAT: (FREE)              



                     SPECIFIC YIELD FOR LAYER  17
 READING ON UNIT    8 WITH FORMAT: (FREE)              



              HYD. COND. ALONG ROWS FOR LAYER  18
 READING ON UNIT    8 WITH FORMAT: (FREE)              

   HORIZ. ANI. (COL./ROW) =   1.00000     FOR LAYER  18



            HORIZ. TO VERTICAL ANI. FOR LAYER  18
 READING ON UNIT    8 WITH FORMAT: (FREE)              



                   SPECIFIC STORAGE FOR LAYER  18
 READING ON UNIT    8 WITH FORMAT: (FREE)              



                     SPECIFIC YIELD FOR LAYER  18
 READING ON UNIT    8 WITH FORMAT: (FREE)              



              HYD. COND. ALONG ROWS FOR LAYER  19
 READING ON UNIT    8 WITH FORMAT: (FREE)              

   HORIZ. ANI. (COL./ROW) =   1.00000     FOR LAYER  19



            HORIZ. TO VERTICAL ANI. FOR LAYER  19
 READING ON UNIT    8 WITH FORMAT: (FREE)              



                   SPECIFIC STORAGE FOR LAYER  19
 READING ON UNIT    8 WITH FORMAT: (FREE)              



                     SPECIFIC YIELD FOR LAYER  19
 READING ON UNIT    8 WITH FORMAT: (FREE)              



              HYD. COND. ALONG ROWS FOR LAYER  20
 READING ON UNIT    8 WITH FORMAT: (FREE)              

   HORIZ. ANI. (COL./ROW) =   1.00000     FOR LAYER  20



            HORIZ. TO VERTICAL ANI. FOR LAYER  20
 READING ON UNIT    8 WITH FORMAT: (FREE)              



                   SPECIFIC STORAGE FOR LAYER  20
 READING ON UNIT    8 WITH FORMAT: (FREE)              



                     SPECIFIC YIELD FOR LAYER  20
 READING ON UNIT    8 WITH FORMAT: (FREE)              



              HYD. COND. ALONG ROWS FOR LAYER  21
 READING ON UNIT    8 WITH FORMAT: (FREE)              

   HORIZ. ANI. (COL./ROW) =   1.00000     FOR LAYER  21



            HORIZ. TO VERTICAL ANI. FOR LAYER  21
 READING ON UNIT    8 WITH FORMAT: (FREE)              



                   SPECIFIC STORAGE FOR LAYER  21
 READING ON UNIT    8 WITH FORMAT: (FREE)              



                     SPECIFIC YIELD FOR LAYER  21
 READING ON UNIT    8 WITH FORMAT: (FREE)              



              HYD. COND. ALONG ROWS FOR LAYER  22
 READING ON UNIT    8 WITH FORMAT: (FREE)              

   HORIZ. ANI. (COL./ROW) =   1.00000     FOR LAYER  22



            HORIZ. TO VERTICAL ANI. FOR LAYER  22
 READING ON UNIT    8 WITH FORMAT: (FREE)              



                   SPECIFIC STORAGE FOR LAYER  22
 READING ON UNIT    8 WITH FORMAT: (FREE)              



                     SPECIFIC YIELD FOR LAYER  22
 READING ON UNIT    8 WITH FORMAT: (FREE)              



              HYD. COND. ALONG ROWS FOR LAYER  23
 READING ON UNIT    8 WITH FORMAT: (FREE)              

   HORIZ. ANI. (COL./ROW) =   1.00000     FOR LAYER  23



            HORIZ. TO VERTICAL ANI. FOR LAYER  23
 READING ON UNIT    8 WITH FORMAT: (FREE)              



                   SPECIFIC STORAGE FOR LAYER  23
 READING ON UNIT    8 WITH FORMAT: (FREE)              



                     SPECIFIC YIELD FOR LAYER  23
 READING ON UNIT    8 WITH FORMAT: (FREE)              



              HYD. COND. ALONG ROWS FOR LAYER  24
 READING ON UNIT    8 WITH FORMAT: (FREE)              

   HORIZ. ANI. (COL./ROW) =   1.00000     FOR LAYER  24



            HORIZ. TO VERTICAL ANI. FOR LAYER  24
 READING ON UNIT    8 WITH FORMAT: (FREE)              



                   SPECIFIC STORAGE FOR LAYER  24
 READING ON UNIT    8 WITH FORMAT: (FREE)              



                     SPECIFIC YIELD FOR LAYER  24
 READING ON UNIT    8 WITH FORMAT: (FREE)              



              HYD. COND. ALONG ROWS FOR LAYER  25
 READING ON UNIT    8 WITH FORMAT: (FREE)              

   HORIZ. ANI. (COL./ROW) =   1.00000     FOR LAYER  25



            HORIZ. TO VERTICAL ANI. FOR LAYER  25
 READING ON UNIT    8 WITH FORMAT: (FREE)              



                   SPECIFIC STORAGE FOR LAYER  25
 READING ON UNIT    8 WITH FORMAT: (FREE)              



                     SPECIFIC YIELD FOR LAYER  25
 READING ON UNIT    8 WITH FORMAT: (FREE)              



              HYD. COND. ALONG ROWS FOR LAYER  26
 READING ON UNIT    8 WITH FORMAT: (FREE)              

   HORIZ. ANI. (COL./ROW) =   1.00000     FOR LAYER  26



            HORIZ. TO VERTICAL ANI. FOR LAYER  26
 READING ON UNIT    8 WITH FORMAT: (FREE)              



                   SPECIFIC STORAGE FOR LAYER  26
 READING ON UNIT    8 WITH FORMAT: (FREE)              



                     SPECIFIC YIELD FOR LAYER  26
 READING ON UNIT    8 WITH FORMAT: (FREE)              



              HYD. COND. ALONG ROWS FOR LAYER  27
 READING ON UNIT    8 WITH FORMAT: (FREE)              

   HORIZ. ANI. (COL./ROW) =   1.00000     FOR LAYER  27



            HORIZ. TO VERTICAL ANI. FOR LAYER  27
 READING ON UNIT    8 WITH FORMAT: (FREE)              



                   SPECIFIC STORAGE FOR LAYER  27
 READING ON UNIT    8 WITH FORMAT: (FREE)              



                     SPECIFIC YIELD FOR LAYER  27
 READING ON UNIT    8 WITH FORMAT: (FREE)              



              HYD. COND. ALONG ROWS FOR LAYER  28
 READING ON UNIT    8 WITH FORMAT: (FREE)              

   HORIZ. ANI. (COL./ROW) =   1.00000     FOR LAYER  28



            HORIZ. TO VERTICAL ANI. FOR LAYER  28
 READING ON UNIT    8 WITH FORMAT: (FREE)              



                   SPECIFIC STORAGE FOR LAYER  28
 READING ON UNIT    8 WITH FORMAT: (FREE)              



                     SPECIFIC YIELD FOR LAYER  28
 READING ON UNIT    8 WITH FORMAT: (FREE)              



              HYD. COND. ALONG ROWS FOR LAYER  29
 READING ON UNIT    8 WITH FORMAT: (FREE)              

   HORIZ. ANI. (COL./ROW) =   1.00000     FOR LAYER  29



            HORIZ. TO VERTICAL ANI. FOR LAYER  29
 READING ON UNIT    8 WITH FORMAT: (FREE)              



                   SPECIFIC STORAGE FOR LAYER  29
 READING ON UNIT    8 WITH FORMAT: (FREE)              



                     SPECIFIC YIELD FOR LAYER  29
 READING ON UNIT    8 WITH FORMAT: (FREE)              



              HYD. COND. ALONG ROWS FOR LAYER  30
 READING ON UNIT    8 WITH FORMAT: (FREE)              

   HORIZ. ANI. (COL./ROW) =   1.00000     FOR LAYER  30



            HORIZ. TO VERTICAL ANI. FOR LAYER  30
 READING ON UNIT    8 WITH FORMAT: (FREE)              



                   SPECIFIC STORAGE FOR LAYER  30
 READING ON UNIT    8 WITH FORMAT: (FREE)              



                     SPECIFIC YIELD FOR LAYER  30
 READING ON UNIT    8 WITH FORMAT: (FREE)              



              HYD. COND. ALONG ROWS FOR LAYER  31
 READING ON UNIT    8 WITH FORMAT: (FREE)              

   HORIZ. ANI. (COL./ROW) =   1.00000     FOR LAYER  31



            HORIZ. TO VERTICAL ANI. FOR LAYER  31
 READING ON UNIT    8 WITH FORMAT: (FREE)              



                   SPECIFIC STORAGE FOR LAYER  31
 READING ON UNIT    8 WITH FORMAT: (FREE)              



                     SPECIFIC YIELD FOR LAYER  31
 READING ON UNIT    8 WITH FORMAT: (FREE)              



              HYD. COND. ALONG ROWS FOR LAYER  32
 READING ON UNIT    8 WITH FORMAT: (FREE)              

   HORIZ. ANI. (COL./ROW) =   1.00000     FOR LAYER  32



            HORIZ. TO VERTICAL ANI. FOR LAYER  32
 READING ON UNIT    8 WITH FORMAT: (FREE)              



                   SPECIFIC STORAGE FOR LAYER  32
 READING ON UNIT    8 WITH FORMAT: (FREE)              



                     SPECIFIC YIELD FOR LAYER  32
 READING ON UNIT    8 WITH FORMAT: (FREE)              



              HYD. COND. ALONG ROWS FOR LAYER  33
 READING ON UNIT    8 WITH FORMAT: (FREE)              

   HORIZ. ANI. (COL./ROW) =   1.00000     FOR LAYER  33



            HORIZ. TO VERTICAL ANI. FOR LAYER  33
 READING ON UNIT    8 WITH FORMAT: (FREE)              



                   SPECIFIC STORAGE FOR LAYER  33
 READING ON UNIT    8 WITH FORMAT: (FREE)              



                     SPECIFIC YIELD FOR LAYER  33
 READING ON UNIT    8 WITH FORMAT: (FREE)              



              HYD. COND. ALONG ROWS FOR LAYER  34
 READING ON UNIT    8 WITH FORMAT: (FREE)              

   HORIZ. ANI. (COL./ROW) =   1.00000     FOR LAYER  34



            HORIZ. TO VERTICAL ANI. FOR LAYER  34
 READING ON UNIT    8 WITH FORMAT: (FREE)              



                   SPECIFIC STORAGE FOR LAYER  34
 READING ON UNIT    8 WITH FORMAT: (FREE)              



                     SPECIFIC YIELD FOR LAYER  34
 READING ON UNIT    8 WITH FORMAT: (FREE)              



              HYD. COND. ALONG ROWS FOR LAYER  35
 READING ON UNIT    8 WITH FORMAT: (FREE)              

   HORIZ. ANI. (COL./ROW) =   1.00000     FOR LAYER  35



            HORIZ. TO VERTICAL ANI. FOR LAYER  35
 READING ON UNIT    8 WITH FORMAT: (FREE)              



                   SPECIFIC STORAGE FOR LAYER  35
 READING ON UNIT    8 WITH FORMAT: (FREE)              



                     SPECIFIC YIELD FOR LAYER  35
 READING ON UNIT    8 WITH FORMAT: (FREE)              



              HYD. COND. ALONG ROWS FOR LAYER  36
 READING ON UNIT    8 WITH FORMAT: (FREE)              

   HORIZ. ANI. (COL./ROW) =   1.00000     FOR LAYER  36



            HORIZ. TO VERTICAL ANI. FOR LAYER  36
 READING ON UNIT    8 WITH FORMAT: (FREE)              



                   SPECIFIC STORAGE FOR LAYER  36
 READING ON UNIT    8 WITH FORMAT: (FREE)              



                     SPECIFIC YIELD FOR LAYER  36
 READING ON UNIT    8 WITH FORMAT: (FREE)              



              HYD. COND. ALONG ROWS FOR LAYER  37
 READING ON UNIT    8 WITH FORMAT: (FREE)              

   HORIZ. ANI. (COL./ROW) =   1.00000     FOR LAYER  37



            HORIZ. TO VERTICAL ANI. FOR LAYER  37
 READING ON UNIT    8 WITH FORMAT: (FREE)              



                   SPECIFIC STORAGE FOR LAYER  37
 READING ON UNIT    8 WITH FORMAT: (FREE)              



                     SPECIFIC YIELD FOR LAYER  37
 READING ON UNIT    8 WITH FORMAT: (FREE)              



              HYD. COND. ALONG ROWS FOR LAYER  38
 READING ON UNIT    8 WITH FORMAT: (FREE)              

   HORIZ. ANI. (COL./ROW) =   1.00000     FOR LAYER  38



            HORIZ. TO VERTICAL ANI. FOR LAYER  38
 READING ON UNIT    8 WITH FORMAT: (FREE)              



                   SPECIFIC STORAGE FOR LAYER  38
 READING ON UNIT    8 WITH FORMAT: (FREE)              



                     SPECIFIC YIELD FOR LAYER  38
 READING ON UNIT    8 WITH FORMAT: (FREE)              



              HYD. COND. ALONG ROWS FOR LAYER  39
 READING ON UNIT    8 WITH FORMAT: (FREE)              

   HORIZ. ANI. (COL./ROW) =   1.00000     FOR LAYER  39



            HORIZ. TO VERTICAL ANI. FOR LAYER  39
 READING ON UNIT    8 WITH FORMAT: (FREE)              



                   SPECIFIC STORAGE FOR LAYER  39
 READING ON UNIT    8 WITH FORMAT: (FREE)              



                     SPECIFIC YIELD FOR LAYER  39
 READING ON UNIT    8 WITH FORMAT: (FREE)              

    HYD. COND. ALONG ROWS =   4.00000     FOR LAYER  40

   HORIZ. ANI. (COL./ROW) =   1.00000     FOR LAYER  40

  HORIZ. TO VERTICAL ANI. =   1.00000     FOR LAYER  40

         SPECIFIC STORAGE =  1.000000E-04 FOR LAYER  40

           SPECIFIC YIELD =  8.000000E-02 FOR LAYER  40

 WEL -- WELL PACKAGE FOR NWT VERSION 1.2.0,  3/01/2020 INPUT READ FROM UNIT   10
 #
 No named parameters
 MAXIMUM OF      2 ACTIVE WELLS AT ONE TIME
 CELL-BY-CELL FLOWS WILL BE SAVED ON UNIT   40
 AUXILIARY WELL VARIABLE: IFACE           
 AUXILIARY WELL VARIABLE: QFACT           
 AUXILIARY WELL VARIABLE: CELLGRP         
 No named parameters
 
 NEGATIVE PUMPING RATES WILL BE REDUCED IF HEAD 
 FALLS WITHIN THE INTERVAL PHIRAMP TIMES THE CELL 
 THICKNESS. THE VALUE SPECIFIED FOR PHIRAMP IS  0.10000E+00
 WELLS WITH REDUCED PUMPING WILL BE REPORTED TO FILE UNIT NUMBER    1


     0 Well parameters

 DRN -- DRAIN PACKAGE, VERSION 7, 5/2/2005 INPUT READ FROM UNIT   11
 #
 No named parameters
 MAXIMUM OF     75 ACTIVE DRAINS AT ONE TIME
 CELL-BY-CELL FLOWS WILL BE SAVED ON UNIT   40
 AUXILIARY DRAIN VARIABLE: IFACE           
 AUXILIARY DRAIN VARIABLE: CONDFACT        
 AUXILIARY DRAIN VARIABLE: CELLGRP         


     0 Drain parameters

 GHB -- GENERAL-HEAD BOUNDARY PACKAGE, VERSION 7, 5/2/2005
         INPUT READ FROM UNIT   12
 #
 No named parameters
 MAXIMUM OF     38 ACTIVE GHB CELLS AT ONE TIME
 CELL-BY-CELL FLOWS WILL BE SAVED ON UNIT   40
 AUXILIARY GHB VARIABLE: IFACE           
 AUXILIARY GHB VARIABLE: CONDFACT        
 AUXILIARY GHB VARIABLE: CELLGRP         


     0 GHB parameters

 WARNING READING LMT PACKAGE INPUT DATA:
 [STANDARD] HEADER NO LONGER SUPPORTED; [EXTENDED] HEADER USED INSTEAD.


 ***Link-MT3DMS Package v7***
 OPENING LINK-MT3DMS OUTPUT FILE: case3.hff                                                                                                                                                                                               
 ON UNIT NUMBER:   333
 FILE TYPE: UNFORMATTED
 HEADER OPTION: EXTENDED
 ***Link-MT3DMS Package v7***

1
                            STRESS PERIOD NO.    1, LENGTH =   10.00000    
                            -----------------------------------------------

                              NUMBER OF TIME STEPS =    10

                               MULTIPLIER FOR DELT =     1.000

                            INITIAL TIME STEP SIZE =   1.000000    

 WELL NO.  LAYER   ROW   COL   STRESS RATE         IFACE           QFACT           CELLGRP         
 --------------------------------------------------------------------------------------------------
      1     37      1     21      -100.0           0.000           0.000          -1.000    
      2     37      1     60      -100.0           0.000           0.000          -1.000    

      2 WELLS

 DRAIN NO.  LAYER   ROW   COL     DRAIN EL.  CONDUCTANCE         IFACE           CONDFACT        CELLGRP         
 ----------------------------------------------------------------------------------------------------------------
      1      3      1     26       37.50           1.000           6.000           0.000          -1.000    
      2      4      1     27       36.50           1.000           6.000           0.000          -1.000    
      3      4      1     28       36.50           1.000           6.000           0.000          -1.000    
      4      5      1     29       35.50           1.000           6.000           0.000          -1.000    
      5      5      1     30       35.50           1.000           6.000           0.000          -1.000    
      6      6      1     31       34.50           1.000           6.000           0.000          -1.000    
      7      6      1     32       34.50           1.000           6.000           0.000          -1.000    
      8      7      1     33       33.50           1.000           6.000           0.000          -1.000    
      9      7      1     34       33.50           1.000           6.000           0.000          -1.000    
     10      8      1     35       32.50           1.000           6.000           0.000          -1.000    
     11      8      1     36       32.50           1.000           6.000           0.000          -1.000    
     12      9      1     37       31.50           1.000           6.000           0.000          -1.000    
     13      9      1     38       31.50           1.000           6.000           0.000          -1.000    
     14     10      1     39       30.50           1.000           6.000           0.000          -1.000    
     15     10      1     40       30.50           1.000           6.000           0.000          -1.000    
     16     11      1     41       29.50           1.000           6.000           0.000          -1.000    
     17     11      1     42       29.50           1.000           6.000           0.000          -1.000    
     18     12      1     43       28.50           1.000           6.000           0.000          -1.000    
     19     12      1     44       28.50           1.000           6.000           0.000          -1.000    
     20     13      1     45       27.50           1.000           6.000           0.000          -1.000    
     21     13      1     46       27.50           1.000           6.000           0.000          -1.000    
     22     14      1     47       26.50           1.000           6.000           0.000          -1.000    
     23     14      1     48       26.50           1.000           6.000           0.000          -1.000    
     24     15      1     49       25.50           1.000           6.000           0.000          -1.000    
     25     15      1     50       25.50           1.000           6.000           0.000          -1.000    
     26     16      1     51       24.50           1.000           6.000           0.000          -1.000    
     27     16      1     52       24.50           1.000           6.000           0.000          -1.000    
     28     17      1     53       23.50           1.000           6.000           0.000          -1.000    
     29     17      1     54       23.50           1.000           6.000           0.000          -1.000    
     30     18      1     55       22.50           1.000           6.000           0.000          -1.000    
     31     18      1     56       22.50           1.000           6.000           0.000          -1.000    
     32     19      1     57       21.50           1.000           6.000           0.000          -1.000    
     33     19      1     58       21.50           1.000           6.000           0.000          -1.000    
     34     20      1     59       20.50           1.000           6.000           0.000          -1.000    
     35     20      1     60       20.50           1.000           6.000           0.000          -1.000    
     36     21      1     61       19.50           1.000           6.000           0.000          -1.000    
     37     21      1     62       19.50           1.000           6.000           0.000          -1.000    
     38     22      1     63       18.50           1.000           6.000           0.000          -1.000    
     39     22      1     64       18.50           1.000           6.000           0.000          -1.000    
     40     23      1     65       17.50           1.000           6.000           0.000          -1.000    
     41     23      1     66       17.50           1.000           6.000           0.000          -1.000    
     42     24      1     67       16.50           1.000           6.000           0.000          -1.000    
     43     24      1     68       16.50           1.000           6.000           0.000          -1.000    
     44     25      1     69       15.50           1.000           6.000           0.000          -1.000    
     45     25      1     70       15.50           1.000           6.000           0.000          -1.000    
     46     26      1     71       14.50           1.000           6.000           0.000          -1.000    
     47     26      1     72       14.50           1.000           6.000           0.000          -1.000    
     48     27      1     73       13.50           1.000           6.000           0.000          -1.000    
     49     27      1     74       13.50           1.000           6.000           0.000          -1.000    
     50     28      1     75       12.50           1.000           6.000           0.000          -1.000    
     51     28      1     76       12.50           1.000           6.000           0.000          -1.000    
     52     29      1     77       11.50           1.000           6.000           0.000          -1.000    
     53     29      1     78       11.50           1.000           6.000           0.000          -1.000    
     54     30      1     79       10.50           1.000           6.000           0.000          -1.000    
     55     30      1     80       10.50           1.000           6.000           0.000          -1.000    
     56     31      1     81       9.500           1.000           6.000           0.000          -1.000    
     57     31      1     82       9.500           1.000           6.000           0.000          -1.000    
     58     32      1     83       8.500           1.000           6.000           0.000          -1.000    
     59     32      1     84       8.500           1.000           6.000           0.000          -1.000    
     60     33      1     85       7.500           1.000           6.000           0.000          -1.000    
     61     33      1     86       7.500           1.000           6.000           0.000          -1.000    
     62     34      1     87       6.500           1.000           6.000           0.000          -1.000    
     63     34      1     88       6.500           1.000           6.000           0.000          -1.000    
     64     35      1     89       5.500           1.000           6.000           0.000          -1.000    
     65     35      1     90       5.500           1.000           6.000           0.000          -1.000    
     66     36      1     91       4.500           1.000           6.000           0.000          -1.000    
     67     36      1     92       4.500           1.000           6.000           0.000          -1.000    
     68     37      1     93       3.500           1.000           6.000           0.000          -1.000    
     69     37      1     94       3.500           1.000           6.000           0.000          -1.000    
     70     38      1     95       2.500           1.000           6.000           0.000          -1.000    
     71     38      1     96       2.500           1.000           6.000           0.000          -1.000    
     72     39      1     97       1.500           1.000           6.000           0.000          -1.000    
     73     39      1     98       1.500           1.000           6.000           0.000          -1.000    
     74     40      1     99      0.5000           1.000           6.000           0.000          -1.000    
     75     40      1    100      0.5000           1.000           6.000           0.000          -1.000    

     75 DRAINS

 BOUND. NO. LAYER   ROW   COL     STAGE      CONDUCTANCE         IFACE           CONDFACT        CELLGRP         
 ----------------------------------------------------------------------------------------------------------------
      1      3      1     13       38.00          0.1000E+05       6.000           0.000          -1.000    
      2      4      1     13       38.00          0.1000E+05       6.000           0.000          -1.000    
      3      5      1     12       38.00          0.1000E+05       6.000           0.000          -1.000    
      4      6      1     12       38.00          0.1000E+05       6.000           0.000          -1.000    
      5      7      1     12       38.00          0.1000E+05       6.000           0.000          -1.000    
      6      8      1     11       38.00          0.1000E+05       6.000           0.000          -1.000    
      7      9      1     11       38.00          0.1000E+05       6.000           0.000          -1.000    
      8     10      1     11       38.00          0.1000E+05       6.000           0.000          -1.000    
      9     11      1     10       38.00          0.1000E+05       6.000           0.000          -1.000    
     10     12      1     10       38.00          0.1000E+05       6.000           0.000          -1.000    
     11     13      1     10       38.00          0.1000E+05       6.000           0.000          -1.000    
     12     14      1      9       38.00          0.1000E+05       6.000           0.000          -1.000    
     13     15      1      9       38.00          0.1000E+05       6.000           0.000          -1.000    
     14     16      1      9       38.00          0.1000E+05       6.000           0.000          -1.000    
     15     17      1      8       38.00          0.1000E+05       6.000           0.000          -1.000    
     16     18      1      8       38.00          0.1000E+05       6.000           0.000          -1.000    
     17     19      1      8       38.00          0.1000E+05       6.000           0.000          -1.000    
     18     20      1      7       38.00          0.1000E+05       6.000           0.000          -1.000    
     19     21      1      7       38.00          0.1000E+05       6.000           0.000          -1.000    
     20     22      1      7       38.00          0.1000E+05       6.000           0.000          -1.000    
     21     23      1      6       38.00          0.1000E+05       6.000           0.000          -1.000    
     22     24      1      6       38.00          0.1000E+05       6.000           0.000          -1.000    
     23     25      1      6       38.00          0.1000E+05       6.000           0.000          -1.000    
     24     26      1      5       38.00          0.1000E+05       6.000           0.000          -1.000    
     25     27      1      5       38.00          0.1000E+05       6.000           0.000          -1.000    
     26     28      1      5       38.00          0.1000E+05       6.000           0.000          -1.000    
     27     29      1      4       38.00          0.1000E+05       6.000           0.000          -1.000    
     28     30      1      4       38.00          0.1000E+05       6.000           0.000          -1.000    
     29     31      1      4       38.00          0.1000E+05       6.000           0.000          -1.000    
     30     32      1      3       38.00          0.1000E+05       6.000           0.000          -1.000    
     31     33      1      3       38.00          0.1000E+05       6.000           0.000          -1.000    
     32     34      1      3       38.00          0.1000E+05       6.000           0.000          -1.000    
     33     35      1      2       38.00          0.1000E+05       6.000           0.000          -1.000    
     34     36      1      2       38.00          0.1000E+05       6.000           0.000          -1.000    
     35     37      1      2       38.00          0.1000E+05       6.000           0.000          -1.000    
     36     38      1      1       38.00          0.1000E+05       6.000           0.000          -1.000    
     37     39      1      1       38.00          0.1000E+05       6.000           0.000          -1.000    
     38     40      1      1       38.00          0.1000E+05       6.000           0.000          -1.000    

     38 GHB CELLS
 
 SOLVING FOR HEAD 
                                                   Max.-Head-Change                         Max.-Flux-Residual
  Residual-Control   Outer-Iter.   Inner-Iter.     Column Row Layer    Maximum-Head-Change  Column Row Layer    Maximum-Flux-Residual          L2-NORM 
          0                 1          36            60    1    37      -0.5258863551E+02      21    1   37        -0.1000000000E+03      0.2378544723E+03
          0                 2          41            58    1    31       0.1230201450E+03      58    1   40        -0.1930218163E+03      0.4009539563E+03
          0                 3          46            58    1    31      -0.1167960860E+03      58    1   24        -0.1108350615E+04      0.3685713203E+04
          0                 4          41            59    1    37       0.5695832281E+02      21    1   37         0.1001145375E+03      0.2559009318E+03
          0                 5          36            59    1    38      -0.5258150328E+02      56    1   20        -0.4312328495E+03      0.1790158345E+04
          0                 6          36            60    1    37       0.3403176961E+02      56    1   20        -0.4946552858E+02      0.2124303968E+03
          0                 7          46            60    1    37      -0.3652930561E+02      60    1   37        -0.2254034912E+03      0.6610021207E+03
          0                 8          41            56    1    26       0.7634162767E+02      21    1   37         0.1003006613E+03      0.1687960758E+03
          0                 9          41            56    1    26      -0.6041673958E+02      56    1   34        -0.3743620664E+03      0.1501603187E+04
          0                10          39            60    1    37       0.1305002290E+02      60    1   37         0.1022352054E+03      0.2988397386E+03
                                                   Max.-Head-Change                         Max.-Flux-Residual
  Residual-Control   Outer-Iter.   Inner-Iter.     Column Row Layer    Maximum-Head-Change  Column Row Layer    Maximum-Flux-Residual          L2-NORM 
          0                11          41            60    1    37      -0.1707443602E+02      60    1   37        -0.7552594250E+02      0.2465841016E+03
          0                12          31            60    1    37       0.1730607728E+02      60    1   37         0.3516287781E+02      0.8575807858E+02
          0                13          41            60    1    37      -0.2178872528E+02      60    1   37        -0.1016675850E+03      0.1904385810E+03
          0                14          36            57    1    19       0.5672983943E+02      60    1   40        -0.1045171847E+03      0.1501561629E+03
          0                15          46            57    1    32      -0.3310504363E+02      58    1   21         0.2419131388E+03      0.1289105475E+04
          0                16          41            21    1    37       0.2366054912E+02      21    1   37         0.1016132381E+03      0.3997930208E+03
          0                17          31            63    1    28       0.3365591100E+02      21    1   37        -0.9697669279E+02      0.2571022765E+03
          0                18          46            63    1    22      -0.2406441522E+02      63    1   27        -0.2457374033E+03      0.1018785152E+04
          0                19          36            60    1    37       0.1804637348E+02      63    1   23        -0.1006839189E+03      0.3949915718E+03
          0                20          46            60    1    37      -0.1752379209E+02      60    1   37        -0.1453303795E+03      0.4756051562E+03
                                                   Max.-Head-Change                         Max.-Flux-Residual
  Residual-Control   Outer-Iter.   Inner-Iter.     Column Row Layer    Maximum-Head-Change  Column Row Layer    Maximum-Flux-Residual          L2-NORM 
          0                21          41            21    1    37       0.2256265892E+02      21    1   37         0.1008414823E+03      0.1856752635E+03
          0                22          36            21    1    37      -0.1524606532E+02      60    1   37        -0.1393593900E+03      0.4948850865E+03
          0                23          51            60    1    37       0.9668829212E+01      60    1   37         0.5336599275E+02      0.1666679215E+03
          0                24          41            60    1    37      -0.1210257733E+02      60    1   37        -0.7608432543E+02      0.1540009369E+03
          0                25          36            61    1    37       0.1403623256E+02      60    1   37         0.3276908267E+02      0.6375600994E+02
          0                26          46            66    1    23      -0.1983254991E+02      61    1   37        -0.1073153854E+03      0.2177446744E+03
          0                27          41            58    1    19       0.3497527080E+02      21    1   37         0.1013257957E+03      0.1365700098E+03
          0                28          46            60    1    37      -0.1901738432E+02      61    1   36         0.3027669783E+03      0.1378521670E+04
          0                29          46            60    1    37      -0.9542530000E+01      61    1   36         0.1656410566E+03      0.7069888434E+03
          0                30          36            65    1    23       0.1663910269E+02      61    1   36         0.9058324841E+02      0.3707723141E+03
                                                   Max.-Head-Change                         Max.-Flux-Residual
  Residual-Control   Outer-Iter.   Inner-Iter.     Column Row Layer    Maximum-Head-Change  Column Row Layer    Maximum-Flux-Residual          L2-NORM 
          0                31          41            60    1    37      -0.7839062784E+01      65    1   33        -0.1068181334E+03      0.3916330153E+03
          0                32          41            60    1    37       0.9943705422E+01      65    1   33        -0.6127589136E+02      0.2063535716E+03
          0                33          46            66    1    23      -0.1062061515E+02      60    1   37        -0.1062456620E+03      0.2371500647E+03
          0                34          41            60    1    36       0.2587832154E+02      21    1   37         0.1009004108E+03      0.1272270946E+03
          0                35          50            60    1    37      -0.1441540211E+02      60    1   36        -0.2094283225E+03      0.6549167697E+03
          0                36          41            60    1    37      -0.8981932697E+01      60    1   36        -0.1303797990E+03      0.3392045644E+03
          0                37          46            58    1    19       0.4672572710E+02      60    1   36        -0.7705587927E+02      0.1384652445E+03
          0                38          43            58    1    19      -0.1381577469E+02      58    1   38        -0.2473145990E+03      0.1088619811E+04
          0                39          46            70    1    25       0.1200794604E+02      58    1   38        -0.1594596184E+03      0.6734658935E+03
          0                40          36            68    1    24      -0.8487181418E+01      58    1   38        -0.1045131997E+03      0.4525017396E+03
                                                   Max.-Head-Change                         Max.-Flux-Residual
  Residual-Control   Outer-Iter.   Inner-Iter.     Column Row Layer    Maximum-Head-Change  Column Row Layer    Maximum-Flux-Residual          L2-NORM 
          0                41          46            65    1    24       0.6611829533E+01      60    1   37         0.8224206165E+02      0.2751966927E+03
          0                42          51            53    1    17      -0.8766846377E+01      65    1   25        -0.7536018050E+02      0.2869063559E+03
          0                43          36            53    1    17       0.5603172009E+01      21    1   37         0.8320296692E+02      0.1666783388E+03
          0                44          46            53    1    17      -0.1107660303E+02      60    1   37        -0.5169785858E+02      0.1335530690E+03
          0                45          31            60    1    37       0.9570202569E+01      60    1   37         0.4058497841E+02      0.7327107269E+02
          0                46          41            66    1    23      -0.8966839410E+01      60    1   37        -0.1244738473E+03      0.1845261202E+03
          0                47          36            60    1    20       0.1286771444E+02      59    1   37         0.2385626068E+02      0.6374580210E+02
          0                48          46            53    1    17      -0.1280751849E+02      52    1   20        -0.1062539303E+03      0.3455706729E+03
          0                49          36            63    1    22       0.1148292535E+02      60    1   37         0.4159180203E+02      0.1393343575E+03
          0                50          41            65    1    24      -0.1662427176E+02      52    1   20        -0.1795719286E+03      0.3589880264E+03
                                                   Max.-Head-Change                         Max.-Flux-Residual
  Residual-Control   Outer-Iter.   Inner-Iter.     Column Row Layer    Maximum-Head-Change  Column Row Layer    Maximum-Flux-Residual          L2-NORM 
          0                51          36            53    1    17       0.1042931521E+02      63    1   33        -0.4586186589E+02      0.1392894110E+03
          0                52          41            59    1    20      -0.9384315990E+01      64    1   28        -0.7733187865E+02      0.2174808141E+03
          0                53          36            65    1    24       0.9356862126E+01      51    1   25        -0.2870954894E+02      0.1029031707E+03
          0                54          46            56    1    18      -0.8182687873E+01      52    1   18        -0.1158962252E+03      0.3274380917E+03
          0                55          41            60    1    20       0.7798133180E+01      52    1   18        -0.6455344734E+02      0.1218432840E+03
          0                56          41            56    1    18      -0.5697364500E+01      58    1   22        -0.1014269985E+03      0.3529467647E+03
          0                57          41            62    1    22       0.7476825168E+01      58    1   24        -0.7067399080E+02      0.2004597468E+03
          0                58          41            53    1    17      -0.7079872296E+01      60    1   37        -0.1037883845E+03      0.2657091316E+03
          0                59          36            56    1    19       0.7166427847E+01      55    1   27        -0.4434485479E+02      0.1252618084E+03
          0                60          41            65    1    24      -0.7680021238E+01      60    1   37        -0.9631049604E+02      0.2431485945E+03
                                                   Max.-Head-Change                         Max.-Flux-Residual
  Residual-Control   Outer-Iter.   Inner-Iter.     Column Row Layer    Maximum-Head-Change  Column Row Layer    Maximum-Flux-Residual          L2-NORM 
          0                61          41            65    1    24       0.5506372439E+01      53    1   20         0.5282201193E+02      0.1292878059E+03
          0                62          46            62    1    21      -0.8313025016E+01      64    1   26        -0.1165774132E+03      0.3280105217E+03
          0                63          36            59    1    20       0.8586264017E+01      53    1   20         0.2788304610E+02      0.1000856013E+03
          0                64          41            62    1    21      -0.6577933172E+01      60    1   37        -0.8087732309E+02      0.1911237974E+03
          0                65          36            62    1    21       0.9365410101E+01      60    1   26        -0.3769358424E+02      0.1062797179E+03
          0                66          46            65    1    24      -0.8221603100E+01      60    1   37        -0.9959318414E+02      0.2735260398E+03
          0                67          36            65    1    24       0.8690930489E+01      65    1   30         0.5118389201E+02      0.1340409600E+03
          0                68          41            65    1    24      -0.7015680675E+01      60    1   37        -0.8151693073E+02      0.1772344496E+03
          0                69          36            65    1    24       0.6325288267E+01      63    1   35        -0.3469977047E+02      0.1111954695E+03
          0                70          36            56    1    18      -0.4159399476E+01      64    1   24        -0.2016938868E+03      0.4885898053E+03
                                                   Max.-Head-Change                         Max.-Flux-Residual
  Residual-Control   Outer-Iter.   Inner-Iter.     Column Row Layer    Maximum-Head-Change  Column Row Layer    Maximum-Flux-Residual          L2-NORM 
          0                71          34            67    1    24       0.5208403851E+01      63    1   28         0.6043571042E+02      0.1607790049E+03
          0                72          36            65    1    24      -0.6037596418E+01      60    1   37        -0.8425516877E+02      0.1739672557E+03
          0                73          36            65    1    24       0.6890728920E+01      62    1   28        -0.3475620397E+02      0.1044811074E+03
          0                74          36            63    1    22      -0.5469832109E+01      60    1   37        -0.8970903862E+02      0.1412367443E+03
          0                75          31            63    1    22       0.5682409675E+01      65    1   33        -0.2617267029E+02      0.8134738654E+02
          0                76          36            63    1    22      -0.5280960268E+01      60    1   37        -0.9213459943E+02      0.1253534642E+03
          0                77          36            62    1    22       0.2733315841E+01      72    1   32        -0.2865246183E+02      0.7032828113E+02
          0                78          36            65    1    24       0.3555486567E+01      63    1   28         0.7762418816E+02      0.1573728082E+03
          0                79          46            65    1    24      -0.4671047801E+01      60    1   37        -0.8388814027E+02      0.1530060578E+03
          0                80          41            21    1    37       0.5504123537E+01      21    1   37         0.1017630621E+03      0.1367704438E+03
                                                   Max.-Head-Change                         Max.-Flux-Residual
  Residual-Control   Outer-Iter.   Inner-Iter.     Column Row Layer    Maximum-Head-Change  Column Row Layer    Maximum-Flux-Residual          L2-NORM 
          0                81          46            65    1    24      -0.5155943323E+01      60    1   37        -0.9071077934E+02      0.1622771275E+03
          0                82          41            63    1    22       0.3843527172E+01      66    1   30        -0.4123328874E+02      0.9820140126E+02
          0                83          36            65    1    24      -0.4487471412E+01      60    1   37        -0.8972514619E+02      0.1372318298E+03
          0                84          41            65    1    24       0.4395272443E+01      65    1   30         0.2759651258E+02      0.8116245847E+02
          0                85          36            65    1    24      -0.3937516317E+01      60    1   37        -0.8976136866E+02      0.1180204245E+03
          0                86          36            65    1    24       0.3583403958E+01      60    1   37         0.1882465788E+02      0.6408338582E+02
          0                87          36            65    1    24      -0.3813237929E+01      60    1   37        -0.8844832446E+02      0.1097782417E+03
          0                88          36            65    1    24       0.3400488630E+01      59    1   37         0.1974432812E+02      0.5998264084E+02
          0                89          36            65    1    24      -0.3514409115E+01      60    1   37        -0.8932569922E+02      0.1360907924E+03
          0                90          36            65    1    24       0.3638865119E+01      68    1   30        -0.3428778456E+02      0.8010491769E+02
                                                   Max.-Head-Change                         Max.-Flux-Residual
  Residual-Control   Outer-Iter.   Inner-Iter.     Column Row Layer    Maximum-Head-Change  Column Row Layer    Maximum-Flux-Residual          L2-NORM 
          0                91          36            65    1    24      -0.3193343537E+01      60    1   37        -0.8799986257E+02      0.1195250565E+03
          0                92          36            67    1    24       0.2375297509E+01      68    1   30        -0.2363859384E+02      0.7018769772E+02
          0                93          36            65    1    24      -0.2845156620E+01      60    1   37        -0.8786573139E+02      0.1115650584E+03
          0                94          36            65    1    24       0.2711614663E+01      59    1   37         0.2000065001E+02      0.6403574255E+02
          0                95          36            65    1    24      -0.2893457846E+01      60    1   37        -0.8735388809E+02      0.1353267557E+03
          0                96          36            65    1    24       0.2456128175E+01      62    1   28        -0.4957800473E+02      0.9445304910E+02
          0                97          36            67    1    24      -0.3027801459E+01      60    1   37        -0.8728024306E+02      0.1267866069E+03
          0                98          36            63    1    22       0.2229116007E+01      62    1   28        -0.4241592623E+02      0.8615374833E+02
          0                99          26            67    1    24       0.5095711715E+00      60    1   37        -0.6146168403E+02      0.1216099859E+03
          0               100          26            67    1    24       0.4427868253E+00      60    1   37        -0.5774374500E+02      0.1142389795E+03
                                                   Max.-Head-Change                         Max.-Flux-Residual
  Residual-Control   Outer-Iter.   Inner-Iter.     Column Row Layer    Maximum-Head-Change  Column Row Layer    Maximum-Flux-Residual          L2-NORM 
          0               101          26            69    1    25       0.3985710040E+00      60    1   37        -0.5427829937E+02      0.1073564334E+03
          0               102          26            69    1    25       0.3647715497E+00      60    1   37        -0.5117530830E+02      0.1006698255E+03
          0               103          26            69    1    25       0.3433190914E+00      60    1   37        -0.4815392345E+02      0.9463610550E+02
          0               104          26            69    1    25       0.3331361972E+00      60    1   37        -0.4533507176E+02      0.8897741397E+02
          0               105          26            69    1    25       0.3063944021E+00      60    1   37        -0.4267307546E+02      0.8364338522E+02
          0               106          26            69    1    25       0.2721954767E+00      60    1   37        -0.4016401149E+02      0.7863060017E+02
          0               107          26            69    1    25       0.2539301424E+00      60    1   37        -0.3779937553E+02      0.7391595099E+02
          0               108          26            69    1    25       0.2293529470E+00      60    1   37        -0.3557070513E+02      0.6947953044E+02
          0               109          26            69    1    25       0.2108780660E+00      60    1   37        -0.3347044877E+02      0.6530906265E+02
          0               110          26            69    1    25       0.1988045391E+00      60    1   37        -0.3149117914E+02      0.6138431565E+02
                                                   Max.-Head-Change                         Max.-Flux-Residual
  Residual-Control   Outer-Iter.   Inner-Iter.     Column Row Layer    Maximum-Head-Change  Column Row Layer    Maximum-Flux-Residual          L2-NORM 
          0               111          26            69    1    25       0.1853585409E+00      60    1   37        -0.2962600225E+02      0.5768256050E+02
          0               112          26            69    1    25       0.1739732183E+00      60    1   37        -0.2786856892E+02      0.5421066486E+02
          0               113          26            65    1    24       0.1671463403E+00      60    1   37        -0.2621276488E+02      0.5094384602E+02
          0               114          25            65    1    24       0.1601469010E+00      60    1   37        -0.2465283798E+02      0.4787199225E+02
          0               115          25            65    1    24       0.1548936159E+00      60    1   37        -0.2318337905E+02      0.4498150420E+02
          0               116          25            65    1    24       0.1512650637E+00      60    1   37        -0.2179928503E+02      0.4226774285E+02
          0               117          21            69    1    25       0.1543684038E+00      60    1   37        -0.2049571279E+02      0.3971202209E+02
          0               118          21            65    1    24       0.1498271198E+00      60    1   37        -0.1926806800E+02      0.3730906960E+02
          0               119          16            65    1    23       0.1406342331E+00      60    1   37        -0.1811204937E+02      0.3504587634E+02
          0               120          16            65    1    25       0.1353951955E+00      60    1   37        -0.1702367618E+02      0.3291970221E+02
                                                   Max.-Head-Change                         Max.-Flux-Residual
  Residual-Control   Outer-Iter.   Inner-Iter.     Column Row Layer    Maximum-Head-Change  Column Row Layer    Maximum-Flux-Residual          L2-NORM 
          0               121          16            65    1    29       0.1302745189E+00      60    1   37        -0.1599899835E+02      0.3092075427E+02
          0               122          16            65    1    29       0.1249825085E+00      60    1   37        -0.1503440387E+02      0.2904106331E+02
          0               123          16            65    1    29       0.1219085159E+00      60    1   37        -0.1412649584E+02      0.2727314320E+02
          0               124          16            65    1    29       0.1171186594E+00      60    1   37        -0.1327195496E+02      0.2561181481E+02
          0               125          16            65    1    27       0.1225709250E+00      60    1   37        -0.1246779447E+02      0.2405498964E+02
          0               126          16            64    1    24      -0.2185169133E+00      60    1   37        -0.1171112229E+02      0.2260731352E+02
          0               127          16            64    1    24      -0.1892907212E+00      60    1   37        -0.1099923925E+02      0.2126510974E+02
          0               128          16            64    1    24      -0.1638246128E+00      60    1   37        -0.1032959715E+02      0.2000363411E+02
          0               129          16            64    1    24      -0.1419445626E+00      60    1   37        -0.9699702009E+01      0.1881657396E+02
          0               130          16            64    1    24      -0.1231414100E+00      60    1   37        -0.9107275095E+01      0.1770012055E+02
                                                   Max.-Head-Change                         Max.-Flux-Residual
  Residual-Control   Outer-Iter.   Inner-Iter.     Column Row Layer    Maximum-Head-Change  Column Row Layer    Maximum-Flux-Residual          L2-NORM 
          0               131          16            65    1    27       0.1118882556E+00      60    1   37        -0.8550143571E+01      0.1664789162E+02
          0               132          16            65    1    27       0.1060894013E+00      60    1   37        -0.8026254574E+01      0.1565865319E+02
          0               133          16            65    1    27       0.1006883290E+00      60    1   37        -0.7533677604E+01      0.1472681944E+02
          0               134          16            65    1    27       0.9654545148E-01      60    1   37        -0.7070585803E+01      0.1385160816E+02
          0               135          16            65    1    27       0.9165149939E-01      60    1   37        -0.6635227854E+01      0.1302763226E+02
          0               136          16            65    1    27       0.8698289171E-01      60    1   37        -0.6226016484E+01      0.1225207818E+02
          0               137          16            65    1    27       0.8252925416E-01      60    1   37        -0.5841422920E+01      0.1152211184E+02
          0               138          16            65    1    27       0.7828055911E-01      60    1   37        -0.5480005245E+01      0.1083506999E+02
          0               139          11            65    1    27       0.9766234745E-01      60    1   37        -0.5140403604E+01      0.1020474298E+02
          0               140          11            65    1    27       0.9208833936E-01      60    1   37        -0.4821361719E+01      0.9604611865E+01
                                                   Max.-Head-Change                         Max.-Flux-Residual
  Residual-Control   Outer-Iter.   Inner-Iter.     Column Row Layer    Maximum-Head-Change  Column Row Layer    Maximum-Flux-Residual          L2-NORM 
          0               141          11            63    1    22       0.1175052794E+00      60    1   37        -0.4521663735E+01      0.9079844797E+01
          0               142          11            63    1    22       0.1088088372E+00      60    1   37        -0.4240154728E+01      0.8536231295E+01
          0               143          11            63    1    22       0.1009007392E+00      60    1   37        -0.3975765504E+01      0.8027010817E+01
          0               144          11            63    1    22       0.9366069859E-01      60    1   37        -0.3727472970E+01      0.7549725123E+01
          0               145          11            63    1    22       0.8690436536E-01      60    1   37        -0.3494314193E+01      0.7102054895E+01
          0               146          11            63    1    28       0.8080706984E-01      60    1   37        -0.3275393038E+01      0.6681942460E+01
          0               147          11            63    1    28       0.7566150543E-01      60    1   37        -0.3069859939E+01      0.6287501058E+01
          0               148          11            63    1    28       0.7082195921E-01      60    1   37        -0.2876917120E+01      0.5916801571E+01
          0               149          11            63    1    28       0.6630975860E-01      60    1   37        -0.2695816308E+01      0.5568734310E+01
          0               150          11            63    1    28       0.6214174398E-01      60    1   37        -0.2525850308E+01      0.5241548869E+01
                                                   Max.-Head-Change                         Max.-Flux-Residual
  Residual-Control   Outer-Iter.   Inner-Iter.     Column Row Layer    Maximum-Head-Change  Column Row Layer    Maximum-Flux-Residual          L2-NORM 
          0               151          11            63    1    28       0.5823159013E-01      60    1   37        -0.2366347457E+01      0.4933871531E+01
          0               152          11            63    1    24       0.5772325012E-01      60    1   37        -0.2216682662E+01      0.4644845438E+01
          0               153          11            63    1    24       0.5410560018E-01      60    1   37        -0.2076252211E+01      0.4372243240E+01
          0               154          11            63    1    24       0.5039637508E-01      60    1   37        -0.1944510261E+01      0.4115556010E+01
          0               155          11            63    1    24       0.4729804438E-01      60    1   37        -0.1820956739E+01      0.3874001592E+01
          0               156          11            63    1    24       0.4441797082E-01      60    1   37        -0.1705071133E+01      0.3646534899E+01
          0               157          11            63    1    24       0.4174099299E-01      60    1   37        -0.1596389352E+01      0.3432308587E+01
          0               158          11            63    1    24       0.3928227966E-01      60    1   37        -0.1494474641E+01      0.3230557574E+01
          0               159          11            63    1    24       0.3384840665E-01      60    1   37        -0.1398912949E+01      0.3040166975E+01
          0               160          11            65    1    27       0.4808439740E-01      60    1   37        -0.1309331182E+01      0.2868840363E+01
                                                   Max.-Head-Change                         Max.-Flux-Residual
  Residual-Control   Outer-Iter.   Inner-Iter.     Column Row Layer    Maximum-Head-Change  Column Row Layer    Maximum-Flux-Residual          L2-NORM 
          0               161          11            65    1    27       0.4539992377E-01      60    1   37        -0.1225376708E+01      0.2715546658E+01
          0               162          11            65    1    27       0.4281531088E-01      60    1   37        -0.1146684022E+01      0.2570598563E+01
          0               163          11            65    1    27       0.4040930115E-01      60    1   37        -0.1072932385E+01      0.2433371045E+01
          0               164          11            65    1    27       0.3813060873E-01      60    1   37        -0.1003817969E+01      0.2303342817E+01
          0               165          11            65    1    27       0.3597277511E-01      60    1   37        -0.9390562083E+00      0.2180057583E+01
          0               166          11            65    1    27       0.3448644687E-01      60    1   37        -0.8783795492E+00      0.2063038168E+01
          0               167          11            65    1    27       0.3252787828E-01      60    1   37        -0.8215332157E+00      0.1952257251E+01
          0               168          11            65    1    27       0.3062948755E-01      60    1   37        -0.7682842383E+00      0.1847148987E+01
          0               169          11            65    1    27       0.3387130006E-01      60    1   37        -0.7184118128E+00      0.1750429433E+01
          0               170          10            65    1    27       0.3168497239E-01      64    1   30        -0.6905038391E+00      0.1659833133E+01
                                                   Max.-Head-Change                         Max.-Flux-Residual
  Residual-Control   Outer-Iter.   Inner-Iter.     Column Row Layer    Maximum-Head-Change  Column Row Layer    Maximum-Flux-Residual          L2-NORM 
          0               171          10            65    1    27       0.2967844150E-01      64    1   30        -0.6648368058E+00      0.1573442139E+01
          0               172          10            65    1    27       0.2778395626E-01      64    1   30        -0.6391392066E+00      0.1491188731E+01
          0               173          10            65    1    27       0.2604007885E-01      64    1   30        -0.6135590282E+00      0.1412649903E+01
          0               174          10            65    1    27       0.2435218680E-01      64    1   30        -0.5881943907E+00      0.1337565453E+01
          0               175          10            65    1    27       0.2277093485E-01      64    1   30        -0.5631926778E+00      0.1265979218E+01
          0               176           6            65    1    27       0.2113225661E-01      64    1   30        -0.5386372464E+00      0.1197752944E+01
          0               177           6            65    1    27       0.1976523153E-01      64    1   30        -0.5147989806E+00      0.1132943622E+01
          0               178           6            65    1    27       0.1848454945E-01      64    1   30        -0.4914930996E+00      0.1071203568E+01
          0               179           6            65    1    27       0.1728489802E-01      64    1   30        -0.4687711900E+00      0.1012416546E+01
          0               180           6            65    1    27       0.1616118799E-01      64    1   30        -0.4466746590E+00      0.9564702891E+00
                                                   Max.-Head-Change                         Max.-Flux-Residual
  Residual-Control   Outer-Iter.   Inner-Iter.     Column Row Layer    Maximum-Head-Change  Column Row Layer    Maximum-Flux-Residual          L2-NORM 
          0               181           6            65    1    27       0.1505040398E-01      64    1   30        -0.4252358549E+00      0.9032439425E+00
          0               182           6            65    1    27       0.1406891427E-01      64    1   30        -0.4045248757E+00      0.8526916084E+00
          0               183           6            65    1    27       0.1314995793E-01      64    1   30        -0.3845065047E+00      0.8046565557E+00
          0               184           6            65    1    27       0.1228969141E-01      64    1   30        -0.3651926454E+00      0.7590382148E+00
          0               185           6            65    1    27       0.1148446532E-01      64    1   30        -0.3465897673E+00      0.7157384013E+00
          0               186           6            65    1    27       0.1073013379E-01      64    1   30        -0.3286996208E+00      0.6746623601E+00
          0               187           6            65    1    27       0.1002486092E-01      64    1   30        -0.3115205240E+00      0.6357150315E+00
          0               188           6            65    1    27       0.9364921799E-02      64    1   30        -0.2950459512E+00      0.5988055600E+00
          0               189           6            65    1    27       0.8747484837E-02      64    1   30        -0.2792670809E+00      0.5638450416E+00
          0               190           6            65    1    27       0.6485601740E-02      64    1   30        -0.2641725611E+00      0.5300597587E+00
                                                   Max.-Head-Change                         Max.-Flux-Residual
  Residual-Control   Outer-Iter.   Inner-Iter.     Column Row Layer    Maximum-Head-Change  Column Row Layer    Maximum-Flux-Residual          L2-NORM 
          0               191           6            65    1    27       0.6051683258E-02      64    1   30        -0.2500364219E+00      0.4980702043E+00
          0               192           6            65    1    27       0.5646720099E-02      64    1   30        -0.2365125167E+00      0.4678966521E+00
          0               193           6            65    1    27       0.5268742214E-02      64    1   30        -0.2235889146E+00      0.4394447362E+00
          0               194           6            65    1    27       0.4915925281E-02      64    1   30        -0.2112521135E+00      0.4126243965E+00
          0               195           6            65    1    27       0.4586571828E-02      64    1   30        -0.1994873265E+00      0.3873496923E+00
          0               196           6            65    1    27       0.4279104305E-02      64    1   30        -0.1882787369E+00      0.3635386434E+00
          0               197           6            65    1    27       0.3992053936E-02      64    1   30        -0.1776097227E+00      0.3411130712E+00
          0               198           6            65    1    27       0.3724063986E-02      64    1   30        -0.1674630566E+00      0.3199985261E+00
          0               199           2            65    1    27       0.3302107256E-02      64    1   30        -0.1578210808E+00      0.3001240864E+00
          0               200           2            65    1    27       0.3079424224E-02      64    1   30        -0.1488214025E+00      0.2815645219E+00
                                                   Max.-Head-Change                         Max.-Flux-Residual
  Residual-Control   Outer-Iter.   Inner-Iter.     Column Row Layer    Maximum-Head-Change  Column Row Layer    Maximum-Flux-Residual          L2-NORM 
          0               201           2            65    1    27       0.2871708208E-02      64    1   30        -0.1402698583E+00      0.2640972141E+00
          0               202           2            65    1    27       0.2677958297E-02      64    1   30        -0.1321502048E+00      0.2476620511E+00
          0               203           2            65    1    27       0.2497241397E-02      64    1   30        -0.1244461326E+00      0.2322019203E+00
          0               204           2            65    1    27       0.2328687062E-02      64    1   30        -0.1171413618E+00      0.2176625761E+00
          0               205           2            65    1    27       0.2171484738E-02      64    1   30        -0.1102197256E+00      0.2039925096E+00
          0               206           2            65    1    27       0.2021839372E-02      64    1   30        -0.1036652405E+00      0.1911293180E+00
          0               207           2            65    1    27       0.1885316302E-02      64    1   30        -0.9746460351E-01      0.1790572769E+00
          0               208           2            65    1    27       0.1758012172E-02      64    1   30        -0.9159958951E-01      0.1677147729E+00
          0               209           2            65    1    27       0.1639312790E-02      64    1   30        -0.8605512417E-01      0.1570601708E+00
          0               210           2            65    1    27       0.1528644913E-02      64    1   30        -0.8081650044E-01      0.1470540376E+00
                                                   Max.-Head-Change                         Max.-Flux-Residual
  Residual-Control   Outer-Iter.   Inner-Iter.     Column Row Layer    Maximum-Head-Change  Column Row Layer    Maximum-Flux-Residual          L2-NORM 
          0               211           2            65    1    27       0.1425473480E-02      64    1   30        -0.7586940654E-01      0.1376590013E+00
          0               212           2            65    1    27       0.1329299050E-02      64    1   30        -0.7119994795E-01      0.1288396908E+00
          0               213           2            65    1    27       0.1239655419E-02      64    1   30        -0.6679466409E-01      0.1205626339E+00
          0               214           2            65    1    27       0.1156107396E-02      64    1   30        -0.6264054031E-01      0.1127960778E+00
          0               215           2            65    1    27       0.1078248734E-02      64    1   30        -0.5872501594E-01      0.1055100938E+00
          0               216           2            65    1    27       0.1005700228E-02      64    1   30        -0.5503598865E-01      0.9867639328E-01
          0               217           2            65    1    27       0.9381078919E-03      64    1   30        -0.5156181585E-01      0.9226822620E-01
          0               218           2            65    1    27       0.8751413349E-03      64    1   30        -0.4829131337E-01      0.8626033230E-01
          0               219           2            65    1    27       0.8164922038E-03      64    1   30        -0.4521375180E-01      0.8062885592E-01
          0               220           2            65    1    27       0.7618727095E-03      64    1   30        -0.4231885094E-01      0.7535122483E-01
                                                   Max.-Head-Change                         Max.-Flux-Residual
  Residual-Control   Outer-Iter.   Inner-Iter.     Column Row Layer    Maximum-Head-Change  Column Row Layer    Maximum-Flux-Residual          L2-NORM 
          0               221           2            65    1    27       0.7110142823E-03      64    1   30        -0.3959677259E-01      0.7040615202E-01
          0               222           2            65    1    27       0.6636663009E-03      64    1   30        -0.3703811197E-01      0.6577358593E-01
          0               223           2            65    1    27       0.6195948911E-03      64    1   30        -0.3463388792E-01      0.6143461835E-01
          0               224           2            65    1    27       0.5785818246E-03      64    1   30        -0.3237553233E-01      0.5737141892E-01
          0               225           2            65    1    27       0.5404234711E-03      64    1   30        -0.3025487866E-01      0.5356718673E-01
          0               226           2            65    1    27       0.5049297632E-03      64    1   30        -0.2826415000E-01      0.5000609840E-01
          0               227           2            65    1    27       0.4719233571E-03      64    1   30        -0.2639594670E-01      0.4667324940E-01
          0               228           2            65    1    27       0.4412387185E-03      64    1   30        -0.2464323369E-01      0.4355457861E-01
          0               229           2            65    1    27       0.4127212894E-03      64    1   30        -0.2299932763E-01      0.4063689779E-01
          0               230           2            65    1    27       0.3862268898E-03      64    1   30        -0.2145788402E-01      0.3790781874E-01
                                                   Max.-Head-Change                         Max.-Flux-Residual
  Residual-Control   Outer-Iter.   Inner-Iter.     Column Row Layer    Maximum-Head-Change  Column Row Layer    Maximum-Flux-Residual          L2-NORM 
          0               231           2            65    1    27       0.3616206464E-03      64    1   30        -0.2001288438E-01      0.3535567263E-01
          0               232           2            65    1    27       0.3387763179E-03      64    1   30        -0.1865862341E-01      0.3296954370E-01
          0               233           2            65    1    27       0.3175757407E-03      64    1   30        -0.1738969657E-01      0.3073915126E-01
          0               234           2            65    1    27       0.2979081351E-03      64    1   30        -0.1620098755E-01      0.2865480097E-01
          0               235           2            65    1    27       0.2796695068E-03      64    1   30        -0.1508765640E-01      0.2670743629E-01
          0               236           2            65    1    27       0.2627620111E-03      64    1   30        -0.1404512791E-01      0.2488859807E-01
          0               237           2            65    1    27       0.2470932096E-03      64    1   30        -0.1306908017E-01      0.2319030495E-01
          0               238           2            65    1    27       0.2325757908E-03      64    1   30        -0.1215543390E-01      0.2160509213E-01
          0               239           2            65    1    27       0.2191268781E-03      64    1   30        -0.1130034217E-01      0.2012601345E-01
          0               240           2            65    1    27       0.2066678669E-03      64    1   30        -0.1050018047E-01      0.1874661158E-01
                                                   Max.-Head-Change                         Max.-Flux-Residual
  Residual-Control   Outer-Iter.   Inner-Iter.     Column Row Layer    Maximum-Head-Change  Column Row Layer    Maximum-Flux-Residual          L2-NORM 
          0               241           2            65    1    27       0.1951237025E-03      64    1   30        -0.9751537242E-02      0.1746079227E-01
          0               242           2            65    1    27       0.1844226905E-03      64    1   30        -0.9051204759E-02      0.1626283383E-01
          0               243           2            65    1    27       0.1744962458E-03      64    1   30        -0.8396634691E-02      0.1514787275E-01
          0               244           2            65    1    27       0.1652788973E-03      64    1   30        -0.7784950335E-02      0.1411095024E-01
          0               245           2            65    1    27       0.1567082416E-03      64    1   30        -0.7213429765E-02      0.1314742345E-01
          0               246           2            65    1    27       0.1487263644E-03      64    1   30        -0.6679528810E-02      0.1225284548E-01
          0               247           2            65    1    27       0.1412778286E-03      64    1   30        -0.6180870493E-02      0.1142322368E-01
          0               248           2            65    1    27       0.1343105198E-03      64    1   30        -0.5715236531E-02      0.1065490217E-01
          0               249           2            65    1    27       0.1277762261E-03      64    1   30        -0.5280558272E-02      0.9944362709E-02
          0               250           2            65    1    27       0.1216312201E-03      64    1   30        -0.4874907286E-02      0.9288225413E-02
                                                   Max.-Head-Change                         Max.-Flux-Residual
  Residual-Control   Outer-Iter.   Inner-Iter.     Column Row Layer    Maximum-Head-Change  Column Row Layer    Maximum-Flux-Residual          L2-NORM 
          0               251           2            65    1    27       0.1158363078E-03      64    1   30        -0.4496574677E-02      0.8683476129E-02
          0               252           2            65    1    27       0.1103564219E-03      64    1   30        -0.4144158771E-02      0.8127296690E-02
          0               253           1            65    1    27       0.7000651166E-04      64    1   30        -0.3816032006E-02      0.7616778248E-02
          0               254           1            65    1    27       0.6563314828E-04      64    1   30        -0.3541128067E-02      0.7118635006E-02
          0               255           1            65    1    27       0.6156883214E-04      64    1   30        -0.3284934730E-02      0.6656821539E-02
          0               256           1            65    1    27       0.5779250103E-04      64    1   30        -0.3046223982E-02      0.6228820314E-02
          0               257           1            65    1    27       0.5428454222E-04      64    1   30        -0.2823843399E-02      0.5832363713E-02
          0               258           1            65    1    27       0.5102668998E-04      64    1   30        -0.2616711850E-02      0.5465350462E-02
          0               259           1            65    1    27       0.4800193678E-04      64    1   30        -0.2423815441E-02      0.5125820777E-02
          0               260           1            65    1    27       0.4519443655E-04      64    1   30        -0.2244203667E-02      0.4811965247E-02
                                                   Max.-Head-Change                         Max.-Flux-Residual
  Residual-Control   Outer-Iter.   Inner-Iter.     Column Row Layer    Maximum-Head-Change  Column Row Layer    Maximum-Flux-Residual          L2-NORM 
          0               261           1            65    1    27       0.4258945857E-04      64    1   30        -0.2076985806E-02      0.4522085254E-02
          0               262           1            65    1    27       0.4017329432E-04      64    1   30        -0.1921327432E-02      0.4254610672E-02
          0               263           1            65    1    27       0.3793320239E-04      64    1   30        -0.1776447162E-02      0.4008060961E-02
          0               264           1            65    1    27       0.3585730626E-04      64    1   30        -0.1641703928E-02      0.3781116633E-02
          0               265           1            65    1    27       0.3393455707E-04      64    1   30        -0.1516399836E-02      0.3572444106E-02
          0               266           1            65    1    27       0.3215470595E-04      64    1   30        -0.1399880815E-02      0.3380811492E-02
          0               267           1            65    1    27       0.3050822154E-04      64    1   30        -0.1291536443E-02      0.3205050771E-02
          0               268           1            65    1    27       0.2898617934E-04      64    1   30        -0.1190797290E-02      0.3044068627E-02
          0               269           1            65    1    27       0.2758024736E-04      64    1   30        -0.1097132614E-02      0.2896834396E-02
          0               270           1            65    1    27       0.2628261016E-04      64    1   30        -0.1010048096E-02      0.2762357641E-02
                                                   Max.-Head-Change                         Max.-Flux-Residual
  Residual-Control   Outer-Iter.   Inner-Iter.     Column Row Layer    Maximum-Head-Change  Column Row Layer    Maximum-Flux-Residual          L2-NORM 
          0               271           1            65    1    27       0.2508592521E-04      64    1   30        -0.9290837665E-03      0.2639711948E-02
          0               272           1            65    1    27       0.2398328629E-04      64    1   30        -0.8538180860E-03      0.2528023980E-02
          0               273           1            65    1    27       0.2296816315E-04      64    1   30        -0.7839266336E-03      0.2426467840E-02
          0               274           1            65    1    27       0.2203437775E-04      64    1   30        -0.7190315697E-03      0.2334241997E-02
          0               275           1            65    1    27       0.2117599379E-04      64    1   30        -0.6587832611E-03      0.2250596018E-02
          0               276           1            65    1    27       0.2038727544E-04      64    1   30        -0.6028587072E-03      0.2174824601E-02
          0               277           1            65    1    27       0.1966262012E-04      64    1   30        -0.5509600109E-03      0.2106270256E-02
          0               278           1            65    1    27       0.1899661908E-04      71    1   31         0.5276643466E-03      0.2044304429E-02
          0               279           1            65    1    27       0.1838401370E-04      71    1   31         0.5197590547E-03      0.1988333336E-02
          0               280           1            65    1    27       0.1781992590E-04      71    1   31         0.5121061471E-03      0.1937762019E-02
                                                   Max.-Head-Change                         Max.-Flux-Residual
  Residual-Control   Outer-Iter.   Inner-Iter.     Column Row Layer    Maximum-Head-Change  Column Row Layer    Maximum-Flux-Residual          L2-NORM 
          0               281           1            79    1    31       0.1736765984E-04      71    1   31         0.5046937166E-03      0.1892072316E-02
          0               282           1            79    1    31       0.1753096197E-04      71    1   31         0.4975102635E-03      0.1850786065E-02
          0               283           1            79    1    31       0.1769497475E-04      71    1   31         0.4905445496E-03      0.1813461523E-02
          0               284           1            79    1    31       0.1785645653E-04      71    1   31         0.4837854857E-03      0.1779692883E-02
          0               285           1            79    1    31       0.1801206967E-04      71    1   31         0.4772220210E-03      0.1749102822E-02
          0               286           1            79    1    31       0.1815855806E-04      71    1   31         0.4708430870E-03      0.1721341427E-02
          0               287           1            79    1    31       0.1829292824E-04      71    1   31         0.4646375854E-03      0.1696085182E-02
          0               288           1            79    1    31       0.1841261244E-04      71    1   31         0.4585944233E-03      0.1673036041E-02
          0               289           1            79    1    31       0.1851559386E-04      71    1   31         0.4527025914E-03      0.1651920576E-02
          0               290           1            79    1    31       0.1860048050E-04      71    1   31         0.4469512760E-03      0.1632489199E-02
                                                   Max.-Head-Change                         Max.-Flux-Residual
  Residual-Control   Outer-Iter.   Inner-Iter.     Column Row Layer    Maximum-Head-Change  Column Row Layer    Maximum-Flux-Residual          L2-NORM 
          0               291           1            79    1    31       0.1866652241E-04      71    1   31         0.4413299905E-03      0.1614515392E-02
          0               292           1            79    1    31       0.1871357678E-04      71    1   31         0.4358287124E-03      0.1597794899E-02
          0               293           1            79    1    32       0.1874203369E-04      71    1   31         0.4304380098E-03      0.1582144834E-02
          0               294           1            79    1    32       0.1875270912E-04      71    1   31         0.4251491454E-03      0.1567402665E-02
          0               295           1            79    1    32       0.1874673571E-04      71    1   31         0.4199541516E-03      0.1553425062E-02
          0               296           1            79    1    32       0.1872545356E-04      71    1   31         0.4148458713E-03      0.1540086625E-02
          0               297           1            79    1    32       0.1869031152E-04      71    1   31         0.4098179676E-03      0.1527278507E-02
          0               298           1            79    1    32       0.1864278679E-04      71    1   31         0.4048649046E-03      0.1514906975E-02
          0               299           1            79    1    32       0.1858432357E-04      71    1   31         0.3999819057E-03      0.1502891940E-02
          0               300           1            79    1    32       0.1851628997E-04      71    1   31         0.3951648963E-03      0.1491165517E-02
                                                   Max.-Head-Change                         Max.-Flux-Residual
  Residual-Control   Outer-Iter.   Inner-Iter.     Column Row Layer    Maximum-Head-Change  Column Row Layer    Maximum-Flux-Residual          L2-NORM 
          0               301           1            79    1    32       0.1843995077E-04      71    1   31         0.3904104353E-03      0.1479670620E-02
          0               302           1            79    1    32       0.1835645301E-04      71    1   31         0.3857156431E-03      0.1468359642E-02
          0               303           1            79    1    32       0.1826682115E-04      71    1   31         0.3810781282E-03      0.1457193223E-02
          0               304           1            79    1    32       0.1817195917E-04      71    1   31         0.3764959164E-03      0.1446139130E-02
          0               305           1            79    1    32       0.1807265701E-04      71    1   31         0.3719673854E-03      0.1435171245E-02
          0               306           1            79    1    32       0.1796959974E-04      71    1   31         0.3674912050E-03      0.1424268660E-02
          0               307           1            79    1    32       0.1786337794E-04      71    1   31         0.3630662840E-03      0.1413414880E-02
          0               308           1            79    1    32       0.1775449843E-04      71    1   31         0.3586917238E-03      0.1402597128E-02
          0               309           1            79    1    32       0.1764339474E-04      71    1   31         0.3543667789E-03      0.1391805738E-02
          0               310           1            79    1    32       0.1753043683E-04      71    1   31         0.3500908230E-03      0.1381033633E-02
                                                   Max.-Head-Change                         Max.-Flux-Residual
  Residual-Control   Outer-Iter.   Inner-Iter.     Column Row Layer    Maximum-Head-Change  Column Row Layer    Maximum-Flux-Residual          L2-NORM 
          0               311           1            79    1    32       0.1741594001E-04      71    1   31         0.3458633212E-03      0.1370275874E-02
          0               312           1            79    1    32       0.1730017282E-04      71    1   31         0.3416838062E-03      0.1359529280E-02
          0               313           1            79    1    32       0.1718336408E-04      71    1   31         0.3375518602E-03      0.1348792103E-02
          0               314           1            79    1    32       0.1706570885E-04      71    1   31         0.3334670991E-03      0.1338063746E-02
          0               315           1            79    1    32       0.1694737365E-04      71    1   31         0.3294291604E-03      0.1327344537E-02
          0               316           1            79    1    32       0.1682850101E-04      71    1   31         0.3254376941E-03      0.1316635535E-02
          0               317           1            79    1    32       0.1670921309E-04      71    1   31         0.3214923554E-03      0.1305938358E-02
          0               318           1            79    1    32       0.1658961499E-04      71    1   31         0.3175927990E-03      0.1295255058E-02
          0               319           1            79    1    32       0.1646979743E-04      71    1   31         0.3137386752E-03      0.1284588002E-02
          0               320           1            79    1    32       0.1634983895E-04      71    1   31         0.3099296275E-03      0.1273939779E-02
                                                   Max.-Head-Change                         Max.-Flux-Residual
  Residual-Control   Outer-Iter.   Inner-Iter.     Column Row Layer    Maximum-Head-Change  Column Row Layer    Maximum-Flux-Residual          L2-NORM 
          0               321           1            79    1    32       0.1622980790E-04      71    1   31         0.3061652904E-03      0.1263313126E-02
          0               322           1            79    1    32       0.1610976398E-04      71    1   31         0.3024452886E-03      0.1252710866E-02
          0               323           1            79    1    32       0.1598975957E-04      71    1   31         0.2987692365E-03      0.1242135857E-02
          0               324           1            79    1    32       0.1586984090E-04      71    1   31         0.2951367381E-03      0.1231590948E-02
          0               325           1            79    1    32       0.1575004892E-04      71    1   31         0.2915473874E-03      0.1221078955E-02
          0               326           1            79    1    32       0.1563042010E-04      71    1   31         0.2880007691E-03      0.1210602626E-02
          0               327           1            79    1    32       0.1551098711E-04      71    1   31         0.2844964594E-03      0.1200164631E-02
          0               328           1            79    1    32       0.1539177935E-04      71    1   31         0.2810340267E-03      0.1189767539E-02
          0               329           1            79    1    32       0.1527282340E-04      71    1   31         0.2776130327E-03      0.1179413815E-02
          0               330           1            79    1    32       0.1515414342E-04      71    1   31         0.2742330336E-03      0.1169105806E-02
                                                   Max.-Head-Change                         Max.-Flux-Residual
  Residual-Control   Outer-Iter.   Inner-Iter.     Column Row Layer    Maximum-Head-Change  Column Row Layer    Maximum-Flux-Residual          L2-NORM 
          0               331           1            79    1    32       0.1503576148E-04      71    1   31         0.2708935804E-03      0.1158845740E-02
          0               332           1            79    1    32       0.1491769778E-04      71    1   31         0.2675942210E-03      0.1148635723E-02
          0               333           1            79    1    32       0.1479997099E-04      71    1   31         0.2643345002E-03      0.1138477737E-02
          0               334           1            79    1    32       0.1468259831E-04      71    1   31         0.2611139609E-03      0.1128373643E-02
          0               335           1            79    1    32       0.1456559575E-04      71    1   31         0.2579321454E-03      0.1118325178E-02
          0               336           1            79    1    32       0.1444897820E-04      71    1   31         0.2547885954E-03      0.1108333964E-02
          0               337           1            79    1    32       0.1433275957E-04      71    1   31         0.2516828535E-03      0.1098401503E-02
          0               338           1            79    1    32       0.1421695290E-04      71    1   31         0.2486144635E-03      0.1088529191E-02
          0               339           1            79    1    32       0.1410157045E-04      71    1   31         0.2455829711E-03      0.1078718312E-02
          0               340           1            79    1    32       0.1398662373E-04      71    1   31         0.2425879243E-03      0.1068970048E-02
                                                   Max.-Head-Change                         Max.-Flux-Residual
  Residual-Control   Outer-Iter.   Inner-Iter.     Column Row Layer    Maximum-Head-Change  Column Row Layer    Maximum-Flux-Residual          L2-NORM 
          0               341           1            79    1    32       0.1387212363E-04      71    1   32        -0.2396852871E-03      0.1059285483E-02
          0               342           1            79    1    32       0.1375808043E-04      71    1   32        -0.2369865605E-03      0.1049665605E-02
          0               343           1            79    1    30       0.1364450392E-04      71    1   32        -0.2343103989E-03      0.1040111314E-02
          0               344           1            79    1    30       0.1353140339E-04      71    1   32        -0.2316570919E-03      0.1030623422E-02
          0               345           1            79    1    30       0.1341878748E-04      71    1   32        -0.2290268820E-03      0.1021202664E-02
          0               346           1            79    1    30       0.1330666455E-04      71    1   32        -0.2264199688E-03      0.1011849695E-02
          0               347           1            79    1    30       0.1319504251E-04      71    1   32        -0.2238365129E-03      0.1002565098E-02
          0               348           1            79    1    30       0.1308392890E-04      71    1   32        -0.2212766391E-03      0.9933493899E-03
          0               349           1            79    1    30       0.1297333092E-04      71    1   32        -0.2187404405E-03      0.9842030207E-03
          0               350           1            79    1    30       0.1286325541E-04      71    1   32        -0.2162279805E-03      0.9751263808E-03
                                                   Max.-Head-Change                         Max.-Flux-Residual
  Residual-Control   Outer-Iter.   Inner-Iter.     Column Row Layer    Maximum-Head-Change  Column Row Layer    Maximum-Flux-Residual          L2-NORM 
          0               351           1            79    1    30       0.1275370889E-04      71    1   32        -0.2137392965E-03      0.9661198037E-03
          0               352           1            79    1    30       0.1264469759E-04      71    1   32        -0.2112744017E-03      0.9571835690E-03
          0               353           1            79    1    30       0.1253622743E-04      71    1   32        -0.2088332879E-03      0.9483179057E-03
          0               354           1            79    1    30       0.1242830407E-04      71    1   32        -0.2064159273E-03      0.9395229958E-03
          0               355           1            79    1    30       0.1232093291E-04      71    1   32        -0.2040222748E-03      0.9307989768E-03
          0               356           1            79    1    30       0.1221411907E-04      71    1   32        -0.2016522692E-03      0.9221459447E-03
          0               357           1            79    1    30       0.1210786745E-04      71    1   32        -0.1993058355E-03      0.9135639565E-03
          0               358           1            79    1    30       0.1200218270E-04      71    1   32        -0.1969828859E-03      0.9050530328E-03
          0               359           1            79    1    30       0.1189706927E-04      71    1   32        -0.1946833212E-03      0.8966131599E-03
          0               360           1            79    1    30       0.1179253137E-04      71    1   32        -0.1924070321E-03      0.8882442923E-03
                                                   Max.-Head-Change                         Max.-Flux-Residual
  Residual-Control   Outer-Iter.   Inner-Iter.     Column Row Layer    Maximum-Head-Change  Column Row Layer    Maximum-Flux-Residual          L2-NORM 
          0               361           1            79    1    30       0.1168857300E-04      71    1   32        -0.1901539005E-03      0.8799463545E-03
          0               362           1            79    1    30       0.1158519797E-04      71    1   32        -0.1879237999E-03      0.8717192432E-03
          0               363           1            79    1    30       0.1148240988E-04      71    1   32        -0.1857165972E-03      0.8635628289E-03
          0               364           1            79    1    30       0.1138021215E-04      71    1   32        -0.1835321528E-03      0.8554769579E-03
          0               365           1            79    1    30       0.1127860803E-04      71    1   32        -0.1813703216E-03      0.8474614535E-03
          0               366           1            79    1    30       0.1117760055E-04      71    1   32        -0.1792309539E-03      0.8395161180E-03
          0               367           1            79    1    30       0.1107719260E-04      71    1   32        -0.1771138955E-03      0.8316407337E-03
          0               368           1            79    1    30       0.1097738688E-04      71    1   32        -0.1750189888E-03      0.8238350646E-03
          0               369           1            79    1    30       0.1087818595E-04      71    1   32        -0.1729460731E-03      0.8160988573E-03
          0               370           1            79    1    30       0.1077959220E-04      71    1   32        -0.1708949849E-03      0.8084318425E-03
                                                   Max.-Head-Change                         Max.-Flux-Residual
  Residual-Control   Outer-Iter.   Inner-Iter.     Column Row Layer    Maximum-Head-Change  Column Row Layer    Maximum-Flux-Residual          L2-NORM 
          0               371           1            79    1    30       0.1068160786E-04      71    1   32        -0.1688655587E-03      0.8008337359E-03
          0               372           1            79    1    30       0.1058423499E-04      71    1   32        -0.1668576268E-03      0.7933042392E-03
          0               373           1            79    1    30       0.1048747555E-04      71    1   32        -0.1648710203E-03      0.7858430412E-03
          0               374           1            79    1    30       0.1039133131E-04      71    1   32        -0.1629055688E-03      0.7784498187E-03
          0               375           1            79    1    30       0.1029580391E-04      71    1   32        -0.1609611012E-03      0.7711242374E-03
          0               376           1            79    1    30       0.1020089487E-04      71    1   32        -0.1590374453E-03      0.7638659523E-03
          0               377           1            79    1    30       0.1010660556E-04      71    1   32        -0.1571344287E-03      0.7566746089E-03
          0               378           1            79    1    30       0.1001293723E-04      71    1   32        -0.1552518787E-03      0.7495498440E-03
          0               379           1            79    1    30       0.9919890986E-05      71    1   32        -0.1533896222E-03      0.7424912858E-03
          0               380           1            79    1    30       0.9827467826E-05      71    1   32        -0.1515474864E-03      0.7354985548E-03
                                                   Max.-Head-Change                         Max.-Flux-Residual
  Residual-Control   Outer-Iter.   Inner-Iter.     Column Row Layer    Maximum-Head-Change  Column Row Layer    Maximum-Flux-Residual          L2-NORM 
          0               381           1            79    1    30       0.9735668614E-05      71    1   32        -0.1497252985E-03      0.7285712647E-03
          0               382           1            79    1    30       0.9644494094E-05      71    1   32        -0.1479228860E-03      0.7217090223E-03
          0               383           1            79    1    30       0.9553944903E-05      71    1   32        -0.1461400769E-03      0.7149114286E-03
          0               384           1            79    1    30       0.9464021545E-05      71    1   32        -0.1443766995E-03      0.7081780790E-03
          0               385           1            79    1    30       0.9374724442E-05      71    1   32        -0.1426325826E-03      0.7015085636E-03
          0               386           1            79    1    30       0.9286053884E-05      71    1   32        -0.1409075560E-03      0.6949024681E-03
          0               387           1            79    1    30       0.9198010047E-05      71    1   32        -0.1392014500E-03      0.6883593738E-03
          0               388           1            79    1    30       0.9110593029E-05      71    1   32        -0.1375140954E-03      0.6818788580E-03
          0               389           1            79    1    30       0.9023802799E-05      71    1   32        -0.1358453243E-03      0.6754604942E-03
          0               390           1            79    1    30       0.8937639247E-05      71    1   32        -0.1341949692E-03      0.6691038533E-03
                                                   Max.-Head-Change                         Max.-Flux-Residual
  Residual-Control   Outer-Iter.   Inner-Iter.     Column Row Layer    Maximum-Head-Change  Column Row Layer    Maximum-Flux-Residual          L2-NORM 
          0               391           1            79    1    30       0.8852102136E-05      71    1   32        -0.1325628638E-03      0.6628085027E-03
          0               392           1            79    1    30       0.8767191168E-05      71    1   32        -0.1309488426E-03      0.6565740075E-03
          0               393           1            79    1    30       0.8682905920E-05      71    1   32        -0.1293527410E-03      0.6503999302E-03
          0               394           1            79    1    30       0.8599245901E-05      71    1   32        -0.1277743954E-03      0.6442858315E-03
          0               395           1            79    1    30       0.8516210510E-05      71    1   32        -0.1262136432E-03      0.6382312698E-03
          0               396           1            79    1    30       0.8433799081E-05      71    1   32        -0.1246703228E-03      0.6322358023E-03
          0               397           1            79    1    30       0.8352010824E-05      71    1   32        -0.1231442737E-03      0.6262989846E-03
          0               398           1            79    1    30       0.8270844897E-05      71    1   32        -0.1216353362E-03      0.6204203713E-03
          0               399           1            79    1    30       0.8190300382E-05      71    1   32        -0.1201433517E-03      0.6145995157E-03
          0               400           1            79    1    30       0.8110376230E-05      71    1   32        -0.1186681628E-03      0.6088359705E-03
                                                   Max.-Head-Change                         Max.-Flux-Residual
  Residual-Control   Outer-Iter.   Inner-Iter.     Column Row Layer    Maximum-Head-Change  Column Row Layer    Maximum-Flux-Residual          L2-NORM 
          0               401           1            79    1    30       0.8031071378E-05      71    1   32        -0.1172096130E-03      0.6031292878E-03
          0               402           1            79    1    30       0.7952384624E-05      71    1   32        -0.1157675469E-03      0.5974790190E-03
          0               403           1            79    1    30       0.7874314745E-05      71    1   32        -0.1143418100E-03      0.5918847154E-03
          0               404           1            79    1    30       0.7796860401E-05      71    1   32        -0.1129322489E-03      0.5863459283E-03
          0               405           1            79    1    30       0.7720020202E-05      71    1   32        -0.1115387114E-03      0.5808622085E-03
          0               406           1            79    1    30       0.7643792674E-05      71    1   32        -0.1101610460E-03      0.5754331072E-03
          0               407           1            79    1    30       0.7568176289E-05      71    1   32        -0.1087991027E-03      0.5700581759E-03
          0               408           1            79    1    30       0.7493169442E-05      71    1   32        -0.1074527320E-03      0.5647369664E-03
          0               409           1            79    1    30       0.7418770453E-05      71    1   32        -0.1061217858E-03      0.5594690308E-03
          0               410           1            79    1    30       0.7344977596E-05      71    1   32        -0.1048061169E-03      0.5542539221E-03
                                                   Max.-Head-Change                         Max.-Flux-Residual
  Residual-Control   Outer-Iter.   Inner-Iter.     Column Row Layer    Maximum-Head-Change  Column Row Layer    Maximum-Flux-Residual          L2-NORM 
          0               411           1            79    1    30       0.7271789078E-05      71    1   32        -0.1035055790E-03      0.5490911938E-03
          0               412           1            79    1    30       0.7199203033E-05      71    1   32        -0.1022200270E-03      0.5439804002E-03
          0               413           1            79    1    30       0.7127217535E-05      71    1   32        -0.1009493166E-03      0.5389210965E-03
          0               414           1            79    1    30       0.7055830605E-05      71    1   32        -0.9969330473E-04      0.5339128390E-03
          0               415           1            79    1    30       0.6985040218E-05      71    1   32        -0.9845184910E-04      0.5289551848E-03
          0               416           1            79    1    30       0.6914844264E-05      71    1   32        -0.9722480849E-04      0.5240476923E-03
          0               417           1            79    1    30       0.6845240615E-05      71    1   32        -0.9601204265E-04      0.5191899212E-03
          0               418           1            79    1    30       0.6776227056E-05      71    1   32        -0.9481341228E-04      0.5143814324E-03
          0               419           1            79    1    30       0.6707801346E-05      71    1   32        -0.9362877912E-04      0.5096217881E-03
          0               420           1            79    1    30       0.6639961178E-05      71    1   32        -0.9245800575E-04      0.5049105521E-03
                                                   Max.-Head-Change                         Max.-Flux-Residual
  Residual-Control   Outer-Iter.   Inner-Iter.     Column Row Layer    Maximum-Head-Change  Column Row Layer    Maximum-Flux-Residual          L2-NORM 
          0               421           1            79    1    30       0.6572704204E-05      71    1   32        -0.9130095576E-04      0.5002472895E-03
          0               422           1            79    1    30       0.6506028006E-05      71    1   32        -0.9015749377E-04      0.4956315671E-03
          0               423           1            79    1    30       0.6439930163E-05      71    1   32        -0.8902748520E-04      0.4910629532E-03
          0               424           1            79    1    30       0.6374408160E-05      71    1   32        -0.8791079648E-04      0.4865410181E-03
          0               425           1            79    1    30       0.6309459500E-05      71    1   32        -0.8680729497E-04      0.4820653333E-03
          0               426           1            79    1    30       0.6245081556E-05      71    1   32        -0.8571684896E-04      0.4776354725E-03
          0               427           1            79    1    30       0.6181271748E-05      71    1   32        -0.8463932761E-04      0.4732510111E-03
          0               428           1            79    1    30       0.6118027399E-05      71    1   32        -0.8357460111E-04      0.4689115265E-03
          0               429           1            79    1    30       0.6055345817E-05      71    1   32        -0.8252254043E-04      0.4646165977E-03
          0               430           1            79    1    30       0.5993224264E-05      71    1   32        -0.8148301755E-04      0.4603658059E-03
                                                   Max.-Head-Change                         Max.-Flux-Residual
  Residual-Control   Outer-Iter.   Inner-Iter.     Column Row Layer    Maximum-Head-Change  Column Row Layer    Maximum-Flux-Residual          L2-NORM 
          0               431           1            79    1    30       0.5931659963E-05      71    1   32        -0.8045590531E-04      0.4561587343E-03
          0               432           1            79    1    30       0.5870650131E-05      71    1   32        -0.7944107741E-04      0.4519949683E-03
          0               433           1            79    1    30       0.5810191894E-05      71    1   32        -0.7843840856E-04      0.4478740949E-03
          0               434           1            79    1    30       0.5750282385E-05      71    1   32        -0.7744777430E-04      0.4437957037E-03
          0               435           1            79    1    30       0.5690918710E-05      71    1   32        -0.7646905097E-04      0.4397593863E-03
          0               436           1            79    1    30       0.5632097920E-05      71    1   32        -0.7550211598E-04      0.4357647365E-03
          0               437           1            79    1    30       0.5573817056E-05      71    1   32        -0.7454684742E-04      0.4318113504E-03
          0               438           1            79    1    30       0.5516073114E-05      71    1   32        -0.7360312444E-04      0.4278988259E-03
          0               439           1            79    1    30       0.5458863078E-05      71    1   32        -0.7267082694E-04      0.4240267638E-03
          0               440           1            79    1    30       0.5402183891E-05      71    1   32        -0.7174983570E-04      0.4201947669E-03
                                                   Max.-Head-Change                         Max.-Flux-Residual
  Residual-Control   Outer-Iter.   Inner-Iter.     Column Row Layer    Maximum-Head-Change  Column Row Layer    Maximum-Flux-Residual          L2-NORM 
          0               441           1            79    1    30       0.5346032493E-05      71    1   32        -0.7084003249E-04      0.4164024404E-03
          0               442           1            79    1    30       0.5290405760E-05      71    1   32        -0.6994129977E-04      0.4126493917E-03
          0               443           1            79    1    30       0.5235300589E-05      71    1   32        -0.6905352099E-04      0.4089352309E-03
          0               444           1            79    1    30       0.5180713819E-05      71    1   32        -0.6817658043E-04      0.4052595701E-03
          0               445           1            79    1    30       0.5126642317E-05      71    1   32        -0.6731036321E-04      0.4016220241E-03
          0               446           1            79    1    30       0.5073082859E-05      71    1   32        -0.6645475533E-04      0.3980222102E-03
          0               447           1            79    1    30       0.5020032250E-05      71    1   32        -0.6560964361E-04      0.3944597479E-03
          0               448           1            79    1    30       0.4967487285E-05      71    1   32        -0.6477491577E-04      0.3909342595E-03
          0               449           1            79    1    30       0.4915444695E-05      71    1   32        -0.6395046033E-04      0.3874453695E-03
          0               450           1            79    1    30       0.4863901235E-05      71    1   32        -0.6313616664E-04      0.3839927051E-03
                                                   Max.-Head-Change                         Max.-Flux-Residual
  Residual-Control   Outer-Iter.   Inner-Iter.     Column Row Layer    Maximum-Head-Change  Column Row Layer    Maximum-Flux-Residual          L2-NORM 
          0               451           1            79    1    30       0.4812853646E-05      71    1   32        -0.6233192497E-04      0.3805758958E-03
          0               452           1            79    1    30       0.4762298620E-05      71    1   32        -0.6153762637E-04      0.3771945740E-03
          0               453           1            79    1    30       0.4712232850E-05      71    1   32        -0.6075316275E-04      0.3738483745E-03
          0               454           1            79    1    30       0.4662653042E-05      71    1   32        -0.5997842688E-04      0.3705369346E-03
          0               455           1            79    1    30       0.4613555861E-05      71    1   32        -0.5921331232E-04      0.3672598941E-03
          0               456           1            79    1    30       0.4564937961E-05      71    1   32        -0.5845771349E-04      0.3640168958E-03
          0               457           1            79    1    30       0.4516796025E-05      71    1   32        -0.5771152566E-04      0.3608075848E-03
          0               458           1            79    1    30       0.4469126667E-05      71    1   32        -0.5697464488E-04      0.3576316086E-03
          0               459           1            79    1    30       0.4421926538E-05      71    1   32        -0.5624696807E-04      0.3544886177E-03
          0               460           1            79    1    30       0.4375192250E-05      71    1   32        -0.5552839299E-04      0.3513782652E-03
                                                   Max.-Head-Change                         Max.-Flux-Residual
  Residual-Control   Outer-Iter.   Inner-Iter.     Column Row Layer    Maximum-Head-Change  Column Row Layer    Maximum-Flux-Residual          L2-NORM 
          0               461           1            79    1    30       0.4328920430E-05      71    1   32        -0.5481881818E-04      0.3483002065E-03
          0               462           1            79    1    30       0.4283107702E-05      71    1   32        -0.5411814301E-04      0.3452541000E-03
          0               463           1            79    1    30       0.4237750660E-05      71    1   32        -0.5342626770E-04      0.3422396067E-03
          0               464           1            79    1    30       0.4192845929E-05      71    1   32        -0.5274309324E-04      0.3392563901E-03
          0               465           1            79    1    30       0.4148390088E-05      71    1   32        -0.5206852148E-04      0.3363041165E-03
          0               466           1            79    1    30       0.4104379751E-05      71    1   32        -0.5140245511E-04      0.3333824547E-03
          0               467           1            79    1    30       0.4060811506E-05      71    1   32        -0.5074479757E-04      0.3304910763E-03
          0               468           1            79    1    30       0.4017681941E-05      71    1   32        -0.5009545308E-04      0.3276296555E-03
          0               469           1            79    1    30       0.3974987658E-05      71    1   32        -0.4945432677E-04      0.3247978692E-03
          0               470           1            79    1    30       0.3932725259E-05      71    1   32        -0.4882132452E-04      0.3219953969E-03
                                                   Max.-Head-Change                         Max.-Flux-Residual
  Residual-Control   Outer-Iter.   Inner-Iter.     Column Row Layer    Maximum-Head-Change  Column Row Layer    Maximum-Flux-Residual          L2-NORM 
          0               471           1            79    1    30       0.3890891331E-05      71    1   32        -0.4819635308E-04      0.3192219211E-03
          0               472           1            79    1    30       0.3849482457E-05      71    1   32        -0.4757931988E-04      0.3164771263E-03
          0               473           1            79    1    30       0.3808495259E-05      71    1   32        -0.4697013328E-04      0.3137607004E-03
          0               474           1            79    1    30       0.3767926310E-05      71    1   32        -0.4636870232E-04      0.3110723334E-03
          0               475           1            79    1    30       0.3727772206E-05      71    1   32        -0.4577493695E-04      0.3084117183E-03
          0               476           1            79    1    30       0.3688029599E-05      71    1   32        -0.4518874778E-04      0.3057785508E-03
          0               477           1            79    1    30       0.3648695071E-05      71    1   32        -0.4461004641E-04      0.3031725289E-03
          0               478           1            79    1    30       0.3609765200E-05      71    1   32        -0.4403874503E-04      0.3005933535E-03
          0               479           1            79    1    30       0.3571236679E-05      71    1   32        -0.4347475671E-04      0.2980407282E-03
          0               480           1            79    1    30       0.3533106099E-05      71    1   32        -0.4291799530E-04      0.2955143593E-03
                                                   Max.-Head-Change                         Max.-Flux-Residual
  Residual-Control   Outer-Iter.   Inner-Iter.     Column Row Layer    Maximum-Head-Change  Column Row Layer    Maximum-Flux-Residual          L2-NORM 
          0               481           1            79    1    30       0.3495370083E-05      71    1   32        -0.4236837544E-04      0.2930139555E-03
          0               482           1            79    1    30       0.3458025302E-05      71    1   32        -0.4182581252E-04      0.2905392283E-03
          0               483           1            79    1    30       0.3421068368E-05      71    1   32        -0.4129022277E-04      0.2880898917E-03
          0               484           1            79    1    30       0.3384495959E-05      71    1   32        -0.4076152312E-04      0.2856656626E-03
          0               485           1            79    1    30       0.3348304759E-05      71    1   32        -0.4023963130E-04      0.2832662603E-03
          0               486           1            79    1    30       0.3312491417E-05      71    1   32        -0.3972446582E-04      0.2808914069E-03
          0               487           1            79    1    30       0.3277052629E-05      71    1   32        -0.3921594600E-04      0.2785408267E-03
          0               488           1            79    1    30       0.3241985082E-05      71    1   32        -0.3871399183E-04      0.2762142471E-03
          0               489           1            79    1    30       0.3207285488E-05      71    1   32        -0.3821852410E-04      0.2739113979E-03
          0               490           1            79    1    30       0.3172950561E-05      71    1   32        -0.3772946442E-04      0.2716320113E-03
                                                   Max.-Head-Change                         Max.-Flux-Residual
  Residual-Control   Outer-Iter.   Inner-Iter.     Column Row Layer    Maximum-Head-Change  Column Row Layer    Maximum-Flux-Residual          L2-NORM 
          0               491           1            79    1    30       0.3138977037E-05      71    1   32        -0.3724673507E-04      0.2693758223E-03
          0               492           1            79    1    30       0.3105361641E-05      71    1   32        -0.3677025914E-04      0.2671425684E-03
          0               493           1            79    1    30       0.3072101155E-05      71    1   32        -0.3629996042E-04      0.2649319897E-03
          0               494           1            79    1    30       0.3039192308E-05      71    1   32        -0.3583576353E-04      0.2627438286E-03
          0               495           1            79    1    30       0.3006631902E-05      71    1   32        -0.3537759375E-04      0.2605778305E-03
          0               496           1            79    1    30       0.2974416739E-05      71    1   32        -0.3492537711E-04      0.2584337431E-03
          0               497           1            79    1    30       0.2942543596E-05      71    1   32        -0.3447904043E-04      0.2563113164E-03
          0               498           1            79    1    30       0.2911009317E-05      71    1   32        -0.3403851126E-04      0.2542103031E-03
          0               499           1            79    1    30       0.2879810730E-05      71    1   32        -0.3360371781E-04      0.2521304585E-03
          0               500           1            79    1    30       0.2848944698E-05      71    1   32        -0.3317458909E-04      0.2500715402E-03
                                                   Max.-Head-Change                         Max.-Flux-Residual
  Residual-Control   Outer-Iter.   Inner-Iter.     Column Row Layer    Maximum-Head-Change  Column Row Layer    Maximum-Flux-Residual          L2-NORM 
          0               501           1            79    1    30       0.2818408065E-05      71    1   32        -0.3275105480E-04      0.2480333084E-03
          0               502           1            79    1    30       0.2788197734E-05      71    1   32        -0.3233304540E-04      0.2460155256E-03
          0               503           1            79    1    30       0.2758310595E-05      71    1   32        -0.3192049202E-04      0.2440179568E-03
          0               504           1            79    1    30       0.2728743548E-05      71    1   32        -0.3151332653E-04      0.2420403696E-03
          0               505           1            79    1    30       0.2699493550E-05      71    1   32        -0.3111148145E-04      0.2400825339E-03
          0               506           1            79    1    30       0.2670557543E-05      71    1   32        -0.3071489013E-04      0.2381442220E-03
          0               507           1            79    1    30       0.2641932461E-05      71    1   32        -0.3032348651E-04      0.2362252085E-03
          0               508           1            79    1    30       0.2613615321E-05      71    1   32        -0.2993720526E-04      0.2343252705E-03
          0               509           1            79    1    30       0.2585603120E-05      71    1   32        -0.2955598178E-04      0.2324441875E-03
          0               510           1            79    1    30       0.2557892861E-05      71    1   32        -0.2917975212E-04      0.2305817413E-03
                                                   Max.-Head-Change                         Max.-Flux-Residual
  Residual-Control   Outer-Iter.   Inner-Iter.     Column Row Layer    Maximum-Head-Change  Column Row Layer    Maximum-Flux-Residual          L2-NORM 
          0               511           1            79    1    30       0.2530481584E-05      71    1   32        -0.2880845307E-04      0.2287377160E-03
          0               512           1            79    1    30       0.2503366345E-05      71    1   32        -0.2844202201E-04      0.2269118981E-03
          0               513           1            79    1    30       0.2476544219E-05      71    1   32        -0.2808039707E-04      0.2251040762E-03
          0               514           1            79    1    30       0.2450012277E-05      71    1   32        -0.2772351708E-04      0.2233140415E-03
          0               515           1            79    1    30       0.2423767659E-05      71    1   32        -0.2737132145E-04      0.2215415875E-03
          0               516           1            79    1    30       0.2397807475E-05      71    1   32        -0.2702375033E-04      0.2197865096E-03
          0               517           1            79    1    30       0.2372128879E-05      71    1   32        -0.2668074450E-04      0.2180486058E-03
          0               518           1            79    1    30       0.2346729027E-05      71    1   32        -0.2634224539E-04      0.2163276761E-03
          0               519           1            79    1    30       0.2321605129E-05      71    1   32        -0.2600819511E-04      0.2146235227E-03
          0               520           1            79    1    30       0.2296754364E-05      71    1   32        -0.2567853642E-04      0.2129359504E-03
                                                   Max.-Head-Change                         Max.-Flux-Residual
  Residual-Control   Outer-Iter.   Inner-Iter.     Column Row Layer    Maximum-Head-Change  Column Row Layer    Maximum-Flux-Residual          L2-NORM 
          0               521           1            79    1    30       0.2272173972E-05      71    1   32        -0.2535321275E-04      0.2112647655E-03
          0               522           1            63    1    30       0.2248224458E-05      71    1   32        -0.2503216807E-04      0.2096097774E-03
          0               523           1            63    1    30       0.2230815506E-05      71    1   32        -0.2471534707E-04      0.2079707968E-03
          0               524           1            63    1    30       0.2213559086E-05      71    1   32        -0.2440269505E-04      0.2063476367E-03
          0               525           1            63    1    30       0.2196453869E-05      71    1   32        -0.2409415794E-04      0.2047401130E-03
          0               526           1            63    1    30       0.2179498508E-05      71    1   32        -0.2378968230E-04      0.2031480425E-03
          0               527           1            63    1    30       0.2162691712E-05      71    1   32        -0.2348921531E-04      0.2015712449E-03
          0               528           1            63    1    30       0.2146032182E-05      71    1   32        -0.2319270470E-04      0.2000095420E-03
          0               529           1            63    1    30       0.2129518623E-05      71    1   32        -0.2290009888E-04      0.1984627572E-03
          0               530           1            63    1    30       0.2113149717E-05      71    1   32        -0.2261134686E-04      0.1969307161E-03
                                                   Max.-Head-Change                         Max.-Flux-Residual
  Residual-Control   Outer-Iter.   Inner-Iter.     Column Row Layer    Maximum-Head-Change  Column Row Layer    Maximum-Flux-Residual          L2-NORM 
          0               531           1            51    1    18       0.2098139045E-05      71    1   32        -0.2232639830E-04      0.1954132467E-03
          0               532           1            51    1    18       0.2087664881E-05      55    1   28         0.2206982272E-04      0.1939101783E-03
          0               533           1            51    1    18       0.2077240476E-05      55    1   28         0.2189471007E-04      0.1924213429E-03
          0               534           1            51    1    18       0.2066865654E-05      55    1   28         0.2172107990E-04      0.1909465741E-03
          0               535           1            51    1    18       0.2056540306E-05      55    1   28         0.2154892003E-04      0.1894857076E-03
          0               536           1            51    1    18       0.2046264275E-05      55    1   28         0.2137821831E-04      0.1880385807E-03
          0               537           1            51    1    18       0.2036037468E-05      55    1   28         0.2120896269E-04      0.1866050333E-03
          0               538           1            51    1    18       0.2025859667E-05      55    1   28         0.2104114128E-04      0.1851849066E-03
          0               539           1            51    1    18       0.2015730778E-05      55    1   28         0.2087474205E-04      0.1837780438E-03
          0               540           1            51    1    18       0.2005650638E-05      55    1   28         0.2070975313E-04      0.1823842903E-03
                                                   Max.-Head-Change                         Max.-Flux-Residual
  Residual-Control   Outer-Iter.   Inner-Iter.     Column Row Layer    Maximum-Head-Change  Column Row Layer    Maximum-Flux-Residual          L2-NORM 
          0               541           1            51    1    18       0.1995619101E-05      55    1   28         0.2054616276E-04      0.1810034930E-03
          0               542           1            51    1    18       0.1985635962E-05      55    1   28         0.2038395911E-04      0.1796355008E-03
          0               543           1            51    1    18       0.1975701120E-05      55    1   28         0.2022313046E-04      0.1782801644E-03
          0               544           1            51    1    18       0.1965814340E-05      55    1   28         0.2006366518E-04      0.1769373362E-03
          0               545           1            51    1    18       0.1955975510E-05      55    1   28         0.1990555168E-04      0.1756068706E-03
          0               546           1            51    1    18       0.1946184419E-05      55    1   28         0.1974877846E-04      0.1742886236E-03
          0               547           1            51    1    18       0.1936440923E-05      55    1   28         0.1959333396E-04      0.1729824531E-03
          0               548           1            51    1    18       0.1926744843E-05      55    1   28         0.1943920684E-04      0.1716882186E-03
          0               549           1            51    1    18       0.1917095984E-05      55    1   28         0.1928638574E-04      0.1704057815E-03
          0               550           1            51    1    18       0.1907494157E-05      55    1   28         0.1913485939E-04      0.1691350045E-03
                                                   Max.-Head-Change                         Max.-Flux-Residual
  Residual-Control   Outer-Iter.   Inner-Iter.     Column Row Layer    Maximum-Head-Change  Column Row Layer    Maximum-Flux-Residual          L2-NORM 
          0               551           1            51    1    18       0.1897939189E-05      55    1   28         0.1898461653E-04      0.1678757524E-03
          0               552           1            51    1    18       0.1888430889E-05      55    1   28         0.1883564607E-04      0.1666278918E-03
          0               553           1            51    1    18       0.1878969101E-05      55    1   28         0.1868793694E-04      0.1653912904E-03
          0               554           1            51    1    18       0.1869553547E-05      55    1   28         0.1854147808E-04      0.1641658179E-03
          0               555           1            51    1    18       0.1860184143E-05      55    1   28         0.1839625855E-04      0.1629513458E-03
          0               556           1            51    1    18       0.1850860564E-05      55    1   28         0.1825226749E-04      0.1617477467E-03
          0               557           1            51    1    18       0.1841582761E-05      55    1   28         0.1810949411E-04      0.1605548950E-03
          0               558           1            51    1    18       0.1832350414E-05      55    1   28         0.1796792762E-04      0.1593726670E-03
          0               559           1            51    1    18       0.1823163381E-05      55    1   28         0.1782755739E-04      0.1582009400E-03
          0               560           1            51    1    18       0.1814021457E-05      55    1   28         0.1768837276E-04      0.1570395934E-03
                                                   Max.-Head-Change                         Max.-Flux-Residual
  Residual-Control   Outer-Iter.   Inner-Iter.     Column Row Layer    Maximum-Head-Change  Column Row Layer    Maximum-Flux-Residual          L2-NORM 
          0               561           1            51    1    18       0.1804924412E-05      55    1   28         0.1755036330E-04      0.1558885076E-03
          0               562           1            51    1    18       0.1795872067E-05      55    1   28         0.1741351849E-04      0.1547475649E-03
          0               563           1            51    1    18       0.1786864161E-05      55    1   28         0.1727782794E-04      0.1536166489E-03
          0               564           1            51    1    18       0.1777900556E-05      55    1   28         0.1714328138E-04      0.1524956445E-03
          0               565           1            51    1    18       0.1768981006E-05      55    1   28         0.1700986850E-04      0.1513844388E-03
          0               566           1            51    1    18       0.1760105338E-05      55    1   28         0.1687757923E-04      0.1502829192E-03
          0               567           1            51    1    18       0.1751273251E-05      55    1   28         0.1674640333E-04      0.1491909755E-03
          0               568           1            51    1    18       0.1742484657E-05      55    1   28         0.1661633095E-04      0.1481084986E-03
          0               569           1            51    1    18       0.1733739262E-05      55    1   28         0.1648735207E-04      0.1470353807E-03
          0               570           1            51    1    18       0.1725036843E-05      55    1   28         0.1635945677E-04      0.1459715153E-03
                                                   Max.-Head-Change                         Max.-Flux-Residual
  Residual-Control   Outer-Iter.   Inner-Iter.     Column Row Layer    Maximum-Head-Change  Column Row Layer    Maximum-Flux-Residual          L2-NORM 
          0               571           1            51    1    18       0.1716377201E-05      55    1   28         0.1623263523E-04      0.1449167974E-03
          0               572           1            51    1    18       0.1707760194E-05      55    1   28         0.1610687784E-04      0.1438711235E-03
          0               573           1            51    1    18       0.1699185490E-05      55    1   28         0.1598217486E-04      0.1428343912E-03
          0               574           1            51    1    18       0.1690652933E-05      55    1   28         0.1585851675E-04      0.1418064995E-03
          0               575           1            51    1    18       0.1682162301E-05      55    1   28         0.1573589398E-04      0.1407873487E-03
          0               576           1            51    1    18       0.1673713367E-05      55    1   28         0.1561429714E-04      0.1397768403E-03
          0               577           1            51    1    18       0.1665305911E-05      55    1   28         0.1549371683E-04      0.1387748773E-03
          0               578           1            51    1    18       0.1656939730E-05      55    1   28         0.1537414380E-04      0.1377813638E-03
          0               579           1            51    1    18       0.1648614627E-05      55    1   28         0.1525556885E-04      0.1367962051E-03
          0               580           1            51    1    18       0.1640330311E-05      55    1   28         0.1513798281E-04      0.1358193078E-03
                                                   Max.-Head-Change                         Max.-Flux-Residual
  Residual-Control   Outer-Iter.   Inner-Iter.     Column Row Layer    Maximum-Head-Change  Column Row Layer    Maximum-Flux-Residual          L2-NORM 
          0               581           1            51    1    18       0.1632086635E-05      55    1   28         0.1502137673E-04      0.1348505798E-03
          0               582           1            51    1    18       0.1623883363E-05      55    1   28         0.1490574151E-04      0.1338899299E-03
          0               583           1            51    1    18       0.1615720287E-05      55    1   28         0.1479106827E-04      0.1329372686E-03
          0               584           1            51    1    18       0.1607597130E-05      55    1   28         0.1467734819E-04      0.1319925071E-03
          0               585           1            51    1    18       0.1599513739E-05      55    1   28         0.1456457252E-04      0.1310555578E-03
          0               586           1            51    1    18       0.1591469833E-05      55    1   28         0.1445273256E-04      0.1301263345E-03
          0               587           1            51    1    18       0.1583465280E-05      55    1   28         0.1434181968E-04      0.1292047518E-03
          0               588           1            51    1    18       0.1575499763E-05      55    1   28         0.1423182533E-04      0.1282907259E-03
          0               589           1            51    1    18       0.1567573184E-05      55    1   28         0.1412274109E-04      0.1273841738E-03
          0               590           1            51    1    18       0.1559685217E-05      55    1   28         0.1401455854E-04      0.1264850133E-03
                                                   Max.-Head-Change                         Max.-Flux-Residual
  Residual-Control   Outer-Iter.   Inner-Iter.     Column Row Layer    Maximum-Head-Change  Column Row Layer    Maximum-Flux-Residual          L2-NORM 
          0               591           1            51    1    18       0.1551835674E-05      55    1   28         0.1390726939E-04      0.1255931639E-03
          0               592           1            51    1    18       0.1544024360E-05      55    1   28         0.1380086533E-04      0.1247085457E-03
          0               593           1            51    1    18       0.1536251054E-05      55    1   28         0.1369533820E-04      0.1238310800E-03
          0               594           1            51    1    18       0.1528515539E-05      55    1   28         0.1359067994E-04      0.1229606889E-03
          0               595           1            51    1    18       0.1520817645E-05      55    1   28         0.1348688249E-04      0.1220972961E-03
          0               596           1            51    1    18       0.1513157022E-05      55    1   28         0.1338393790E-04      0.1212408257E-03
          0               597           1            51    1    18       0.1505533632E-05      55    1   28         0.1328183829E-04      0.1203912033E-03
          0               598           1            51    1    18       0.1497947143E-05      55    1   28         0.1318057582E-04      0.1195483550E-03
          0               599           1            51    1    18       0.1490397368E-05      55    1   28         0.1308014276E-04      0.1187122082E-03
          0               600           1            51    1    18       0.1482884117E-05      55    1   28         0.1298053145E-04      0.1178826912E-03
                                                   Max.-Head-Change                         Max.-Flux-Residual
  Residual-Control   Outer-Iter.   Inner-Iter.     Column Row Layer    Maximum-Head-Change  Column Row Layer    Maximum-Flux-Residual          L2-NORM 
          0               601           1            51    1    18       0.1475407163E-05      55    1   28         0.1288173429E-04      0.1170597331E-03
          0               602           1            51    1    18       0.1467966320E-05      55    1   28         0.1278374373E-04      0.1162432642E-03
          0               603           1            51    1    18       0.1460561340E-05      55    1   28         0.1268655227E-04      0.1154332154E-03
          0               604           1            51    1    18       0.1453192040E-05      55    1   28         0.1259015259E-04      0.1146295189E-03
          0               605           1            51    1    18       0.1445858183E-05      55    1   28         0.1249453729E-04      0.1138321072E-03
          0               606           1            51    1    18       0.1438559648E-05      55    1   28         0.1239969922E-04      0.1130409145E-03
          0               607           1            51    1    18       0.1431296110E-05      55    1   28         0.1230563105E-04      0.1122558753E-03
          0               608           1            51    1    18       0.1424067451E-05      55    1   28         0.1221232579E-04      0.1114769250E-03
          0               609           1            51    1    18       0.1416873426E-05      55    1   28         0.1211977629E-04      0.1107040000E-03
          0               610           1            51    1    18       0.1409713877E-05      55    1   28         0.1202797559E-04      0.1099370376E-03
                                                   Max.-Head-Change                         Max.-Flux-Residual
  Residual-Control   Outer-Iter.   Inner-Iter.     Column Row Layer    Maximum-Head-Change  Column Row Layer    Maximum-Flux-Residual          L2-NORM 
          0               611           1            51    1    18       0.1402588524E-05      55    1   28         0.1193691685E-04      0.1091759758E-03
          0               612           1            51    1    18       0.1395497241E-05      55    1   28         0.1184659311E-04      0.1084207533E-03
          0               613           1            51    1    18       0.1388439813E-05      55    1   28         0.1175699765E-04      0.1076713099E-03
          0               614           1            51    1    18       0.1381416019E-05      55    1   28         0.1166812370E-04      0.1069275861E-03
          0               615           1            51    1    18       0.1374425643E-05      55    1   28         0.1157996468E-04      0.1061895230E-03
          0               616           1            51    1    18       0.1367468542E-05      55    1   28         0.1149251392E-04      0.1054570627E-03
          0               617           1            51    1    18       0.1360544502E-05      55    1   28         0.1140576491E-04      0.1047301479E-03
          0               618           1            51    1    18       0.1353653295E-05      55    1   28         0.1131971121E-04      0.1040087222E-03
          0               619           1            51    1    18       0.1346794776E-05      55    1   28         0.1123434639E-04      0.1032927302E-03
          0               620           1            51    1    18       0.1339968755E-05      55    1   28         0.1114966413E-04      0.1025821166E-03
                                                   Max.-Head-Change                         Max.-Flux-Residual
  Residual-Control   Outer-Iter.   Inner-Iter.     Column Row Layer    Maximum-Head-Change  Column Row Layer    Maximum-Flux-Residual          L2-NORM 
          0               621           1            51    1    18       0.1333175002E-05      55    1   28         0.1106565817E-04      0.1018768271E-03
          0               622           1            51    1    18       0.1326413328E-05      55    1   28         0.1098232229E-04      0.1011768083E-03
          0               623           1            51    1    18       0.1319683582E-05      55    1   28         0.1089965035E-04      0.1004820075E-03

    ------------------------------------------------
       NWT REQUIRED          623 OUTER ITERATIONS 
       AND A TOTAL OF       5735 INNER ITERATIONS.
    ------------------------------------------------

 OUTPUT CONTROL FOR STRESS PERIOD    1   TIME STEP    1
    PRINT BUDGET
    SAVE HEAD FOR ALL LAYERS
    SAVE DRAWDOWN FOR ALL LAYERS
    SAVE BUDGET
 UBDSV1 SAVING "         STORAGE" ON UNIT  40 AT TIME STEP  1, STRESS PERIOD   1
 UBDSV2 SAVING "   CONSTANT HEAD" ON UNIT  40 AT TIME STEP  1, STRESS PERIOD   1
 UBDSV1 SAVING "FLOW RIGHT FACE " ON UNIT  40 AT TIME STEP  1, STRESS PERIOD   1
 UBDSV1 SAVING "FLOW LOWER FACE " ON UNIT  40 AT TIME STEP  1, STRESS PERIOD   1
 UBDSV4 SAVING "           WELLS" ON UNIT  40 AT TIME STEP  1, STRESS PERIOD   1
 
 WELLS WITH REDUCED PUMPING FOR STRESS PERIOD     1 TIME STEP     1
   LAY   ROW   COL         APPL.Q          ACT.Q        GW-HEAD       CELL-BOT
    37     1    60  -0.100000E+03  -0.433626E+02   0.352278E+01   0.350000E+01
 
 UBDSV4 SAVING "          DRAINS" ON UNIT  40 AT TIME STEP  1, STRESS PERIOD   1
 UBDSV4 SAVING " HEAD DEP BOUNDS" ON UNIT  40 AT TIME STEP  1, STRESS PERIOD   1

 SAVING SATURATED THICKNESS AND FLOW TERMS ON UNIT  333 FOR MT3DMS
 BY THE LINK-MT3DMS PACKAGE V7 AT TIME STEP    1, STRESS PERIOD    1


 HEAD WILL BE SAVED ON UNIT    2 AT END OF TIME STEP    1, STRESS PERIOD    1

 DRAWDOWN WILL BE SAVED ON UNIT   14 AT END OF TIME STEP    1, STRESS PERIOD    1
1
  VOLUMETRIC BUDGET FOR ENTIRE MODEL AT END OF TIME STEP    1, STRESS PERIOD   1
  ------------------------------------------------------------------------------

     CUMULATIVE VOLUMES      L**3       RATES FOR THIS TIME STEP      L**3/T
     ------------------                 ------------------------

           IN:                                      IN:
           ---                                      ---
             STORAGE     =          40.7180               STORAGE     =          40.7180
       CONSTANT HEAD     =           0.0000         CONSTANT HEAD     =           0.0000
               WELLS     =           0.0000                 WELLS     =           0.0000
              DRAINS     =           0.0000                DRAINS     =           0.0000
     HEAD DEP BOUNDS     =         108.5882       HEAD DEP BOUNDS     =         108.5882

                TOTAL IN =         149.3063                  TOTAL IN =         149.3063

          OUT:                                     OUT:
          ----                                     ----
             STORAGE     =           0.0000               STORAGE     =           0.0000
       CONSTANT HEAD     =           0.0000         CONSTANT HEAD     =           0.0000
               WELLS     =         143.3626                 WELLS     =         143.3626
              DRAINS     =           5.9415                DRAINS     =           5.9415
     HEAD DEP BOUNDS     =           0.0000       HEAD DEP BOUNDS     =           0.0000

               TOTAL OUT =         149.3042                 TOTAL OUT =         149.3042

                IN - OUT =       2.0752E-03                  IN - OUT =       2.0752E-03

     PERCENT DISCREPANCY =           0.00         PERCENT DISCREPANCY =           0.00






         TIME SUMMARY AT END OF TIME STEP    1 IN STRESS PERIOD    1
                    SECONDS     MINUTES      HOURS       DAYS        YEARS
                    -----------------------------------------------------------
   TIME STEP LENGTH  86400.      1440.0      24.000      1.0000     2.73785E-03
 STRESS PERIOD TIME  86400.      1440.0      24.000      1.0000     2.73785E-03
         TOTAL TIME  86400.      1440.0      24.000      1.0000     2.73785E-03
1
 
 SOLVING FOR HEAD 
                                                   Max.-Head-Change                         Max.-Flux-Residual
  Residual-Control   Outer-Iter.   Inner-Iter.     Column Row Layer    Maximum-Head-Change  Column Row Layer    Maximum-Flux-Residual          L2-NORM 
          0                 1          26            51    1    16      -0.5528517546E+01      56    1   24        -0.1200054931E+00      0.1889828356E+01
          0                 2          31            21    1    37       0.2863940929E+02      21    1   37         0.9997672252E+02      0.1027863169E+03
          0                 3          46            21    1    37      -0.2597668391E+02      21    1   37        -0.9797451215E+02      0.2508208036E+03
          0                 4          16            52    1    20      -0.4819200332E+01      22    1   37         0.3288494015E+02      0.9055816398E+02
          0                 5          31            21    1    37       0.2706743811E+02      21    1   37         0.9862396757E+02      0.1004125493E+03
          0                 6          46            21    1    37      -0.2470922985E+02      21    1   37        -0.9152079207E+02      0.2522856343E+03
          0                 7          21            33    1     7      -0.7258148095E+01      33    1    7        -0.1717303687E+02      0.7789887111E+02
          0                 8          31            21    1    37       0.2523394697E+02      21    1   37         0.9891878723E+02      0.1019557349E+03
          0                 9          36            21    1    37      -0.2180280606E+02      21    1   37        -0.8616823549E+02      0.2902848734E+03
          0                10          25            36    1    10      -0.5228393647E+01      36    1   10        -0.1805070468E+02      0.7111346836E+02
                                                   Max.-Head-Change                         Max.-Flux-Residual
  Residual-Control   Outer-Iter.   Inner-Iter.     Column Row Layer    Maximum-Head-Change  Column Row Layer    Maximum-Flux-Residual          L2-NORM 
          0                11          16            58    1    27      -0.1664223576E+01      22    1    8        -0.5392610512E+01      0.1715543269E+02
          0                12          31            21    1    37       0.2397279645E+02      21    1   37         0.9959888764E+02      0.9968426949E+02
          0                13          36            21    1    37      -0.1926562612E+02      21    1   37        -0.8103558014E+02      0.1660740899E+03
          0                14          31            31    1     7      -0.4125459280E+01      21    1   37        -0.1749550003E+02      0.6230786417E+02
          0                15          21            31    1     6      -0.1851994489E+01      21    1   37        -0.3709516403E+01      0.1517259134E+02
          0                16          31            21    1    37       0.2246435256E+02      21    1   37         0.9919119701E+02      0.9925745564E+02
          0                17          41            21    1    37      -0.1702663203E+02      21    1   37        -0.7639402742E+02      0.2086040964E+03
          0                18          31            40    1    12      -0.4432951800E+01      21    1   37        -0.2001899269E+02      0.6345298881E+02
          0                19          21            40    1    10      -0.2058878696E+01      21    1   37        -0.5214566591E+01      0.1829320201E+02
          0                20          14            40    1    10      -0.6287159631E+00      21    1   37         0.6327957346E+02      0.6350726714E+02
                                                   Max.-Head-Change                         Max.-Flux-Residual
  Residual-Control   Outer-Iter.   Inner-Iter.     Column Row Layer    Maximum-Head-Change  Column Row Layer    Maximum-Flux-Residual          L2-NORM 
          0                21           6            40    1    10      -0.3905823416E+00      21    1   37         0.1829746273E+02      0.1838367215E+02
          0                22           6            41    1    11       0.8388332893E-01      21    1   37         0.6897117809E+01      0.6914923663E+01
          0                23           6            41    1    11       0.2647238133E-01      21    1   37         0.2590489491E+01      0.2595406840E+01
          0                24           2            40    1    14      -0.7165123021E-02      21    1   37         0.9227943204E+00      0.9243137771E+00
          0                25           2            41    1    11       0.2252375023E-02      21    1   37         0.3009420866E+00      0.3014695497E+00
          0                26           1            41    1    11       0.6699589987E-03      21    1   37         0.9091292252E-01      0.9113770646E-01
          0                27           1            41    1    11       0.2674357052E-03      21    1   37         0.2633364632E-01      0.2650009569E-01
          0                28           1            41    1    11       0.1518382081E-03      21    1   37         0.7506494467E-02      0.7838027219E-02
          0                29           1            41    1    11       0.1238135202E-03      21    1   37         0.2110971098E-02      0.2981345213E-02
          0                30           1            55    1    26       0.1726257444E-03      21    1   37         0.5354506251E-03      0.2097465660E-02
                                                   Max.-Head-Change                         Max.-Flux-Residual
  Residual-Control   Outer-Iter.   Inner-Iter.     Column Row Layer    Maximum-Head-Change  Column Row Layer    Maximum-Flux-Residual          L2-NORM 
          0                31           1            55    1    26       0.2364711180E-03      40    1   22         0.2442885017E-03      0.1973617457E-02
          0                32           1            55    1    27       0.2198067805E-03      40    1   22         0.2542326438E-03      0.1943168865E-02
          0                33           1            55    1    28       0.2035621980E-03      40    1   22         0.2454318411E-03      0.1847023644E-02
          0                34           1            55    1    28       0.1915314784E-03      40    1   22         0.2313500655E-03      0.1730503684E-02
          0                35           1            55    1    28       0.1793371891E-03      40    1   22         0.2166503451E-03      0.1615228730E-02
          0                36           1            55    1    28       0.1687017142E-03      40    1   22         0.2021691631E-03      0.1505874996E-02
          0                37           1            55    1    28       0.1584052228E-03      40    1   22         0.1885231279E-03      0.1404249389E-02
          0                38           1            55    1    28       0.1488952121E-03      40    1   22         0.1756655272E-03      0.1309712487E-02
          0                39           1            55    1    28       0.1398218798E-03      40    1   22         0.1636623291E-03      0.1221870680E-02
          0                40           1            55    1    28       0.1312839612E-03      40    1   22         0.1524452667E-03      0.1140054829E-02
                                                   Max.-Head-Change                         Max.-Flux-Residual
  Residual-Control   Outer-Iter.   Inner-Iter.     Column Row Layer    Maximum-Head-Change  Column Row Layer    Maximum-Flux-Residual          L2-NORM 
          0                41           1            55    1    28       0.1231809516E-03      40    1   22         0.1419890270E-03      0.1063796184E-02
          0                42           1            55    1    28       0.1155240313E-03      40    1   22         0.1322405220E-03      0.9926372149E-03
          0                43           1            55    1    28       0.1082788636E-03      40    1   22         0.1231587974E-03      0.9262043131E-03
          0                44           1            55    1    28       0.1014358307E-03      40    1   22         0.1146989654E-03      0.8641598351E-03
          0                45           1            55    1    28       0.9497661754E-04      40    1   22         0.1068201821E-03      0.8062035215E-03
          0                46           1            55    1    28       0.8888674541E-04      40    1   22         0.9948308460E-04      0.7520635050E-03
          0                47           1            55    1    28       0.8315102557E-04      40    1   22         0.9265064821E-04      0.7014888642E-03
          0                48           1            55    1    28       0.7775386152E-04      40    1   22         0.8628832924E-04      0.6542493281E-03
          0                49           1            55    1    28       0.7268035738E-04      40    1   22         0.8036358324E-04      0.6101293389E-03
          0                50           1            55    1    28       0.6791485464E-04      40    1   22         0.7484628182E-04      0.5689290209E-03
                                                   Max.-Head-Change                         Max.-Flux-Residual
  Residual-Control   Outer-Iter.   Inner-Iter.     Column Row Layer    Maximum-Head-Change  Column Row Layer    Maximum-Flux-Residual          L2-NORM 
          0                51           1            55    1    28       0.6344250442E-04      40    1   22         0.6970814545E-04      0.5304604018E-03
          0                52           1            55    1    28       0.5924807126E-04      40    1   22         0.6492301873E-04      0.4945481419E-03
          0                53           1            55    1    28       0.5531707139E-04      40    1   22         0.6046643287E-04      0.4610272057E-03
          0                54           1            55    1    28       0.5163500675E-04      40    1   22         0.5631573612E-04      0.4297432058E-03
          0                55           1            55    1    28       0.4818809471E-04      40    1   22         0.5244978044E-04      0.4005509108E-03
          0                56           1            55    1    28       0.4496279427E-04      40    1   22         0.4884896509E-04      0.3733143197E-03
          0                57           1            55    1    28       0.4194625276E-04      40    1   22         0.4549500960E-04      0.3479056315E-03
          0                58           1            55    1    28       0.3912601471E-04      40    1   22         0.4237095166E-04      0.3242051548E-03
          0                59           1            55    1    28       0.3649028568E-04      40    1   22         0.3946097982E-04      0.3021005477E-03
          0                60           1            55    1    28       0.3402774442E-04      40    1   22         0.3675040776E-04      0.2814866304E-03
                                                   Max.-Head-Change                         Max.-Flux-Residual
  Residual-Control   Outer-Iter.   Inner-Iter.     Column Row Layer    Maximum-Head-Change  Column Row Layer    Maximum-Flux-Residual          L2-NORM 
          0                61           1            55    1    28       0.3172770066E-04      40    1   22         0.3422554931E-04      0.2622647915E-03
          0                62           1            55    1    28       0.2957996529E-04      40    1   22         0.3187368097E-04      0.2443427531E-03
          0                63           1            55    1    28       0.2757493542E-04      40    1   22         0.2968294785E-04      0.2276340874E-03
          0                64           1            55    1    28       0.2570350898E-04      40    1   22         0.2764232093E-04      0.2120579579E-03
          0                65           1            55    1    28       0.2395712694E-04      40    1   22         0.2574152387E-04      0.1975387201E-03
          0                66           1            55    1    28       0.2232770144E-04      40    1   22         0.2397099277E-04      0.1840056611E-03
          0                67           1            55    1    28       0.2080764600E-04      40    1   22         0.2232181512E-04      0.1713926544E-03
          0                68           1            55    1    28       0.1938981297E-04      40    1   22         0.2078569420E-04      0.1596379175E-03
          0                69           1            55    1    28       0.1806749940E-04      40    1   22         0.1935489718E-04      0.1486837094E-03
          0                70           1            55    1    28       0.1683441389E-04      40    1   22         0.1802222425E-04      0.1384761013E-03
                                                   Max.-Head-Change                         Max.-Flux-Residual
  Residual-Control   Outer-Iter.   Inner-Iter.     Column Row Layer    Maximum-Head-Change  Column Row Layer    Maximum-Flux-Residual          L2-NORM 
          0                71           1            55    1    28       0.1568465741E-04      40    1   22         0.1678096481E-04      0.1289647231E-03
          0                72           1            55    1    28       0.1461270320E-04      40    1   22         0.1562486966E-04      0.1201025449E-03
          0                73           1            55    1    28       0.1361337666E-04      40    1   22         0.1454811374E-04      0.1118456572E-03
          0                74           1            55    1    28       0.1268183184E-04      40    1   22         0.1354527194E-04      0.1041530783E-03

    ------------------------------------------------
       NWT REQUIRED           74 OUTER ITERATIONS 
       AND A TOTAL OF        653 INNER ITERATIONS.
    ------------------------------------------------

 OUTPUT CONTROL FOR STRESS PERIOD    1   TIME STEP    2
    PRINT BUDGET
    SAVE HEAD FOR ALL LAYERS
    SAVE DRAWDOWN FOR ALL LAYERS
    SAVE BUDGET
 UBDSV1 SAVING "         STORAGE" ON UNIT  40 AT TIME STEP  2, STRESS PERIOD   1
 UBDSV2 SAVING "   CONSTANT HEAD" ON UNIT  40 AT TIME STEP  2, STRESS PERIOD   1
 UBDSV1 SAVING "FLOW RIGHT FACE " ON UNIT  40 AT TIME STEP  2, STRESS PERIOD   1
 UBDSV1 SAVING "FLOW LOWER FACE " ON UNIT  40 AT TIME STEP  2, STRESS PERIOD   1
 UBDSV4 SAVING "           WELLS" ON UNIT  40 AT TIME STEP  2, STRESS PERIOD   1
 
 WELLS WITH REDUCED PUMPING FOR STRESS PERIOD     1 TIME STEP     2
   LAY   ROW   COL         APPL.Q          ACT.Q        GW-HEAD       CELL-BOT
    37     1    21  -0.100000E+03  -0.983944E+02   0.263874E+01   0.250000E+01
    37     1    60  -0.100000E+03  -0.294639E+02   0.351797E+01   0.350000E+01
 
 UBDSV4 SAVING "          DRAINS" ON UNIT  40 AT TIME STEP  2, STRESS PERIOD   1
 UBDSV4 SAVING " HEAD DEP BOUNDS" ON UNIT  40 AT TIME STEP  2, STRESS PERIOD   1

 SAVING SATURATED THICKNESS AND FLOW TERMS ON UNIT  333 FOR MT3DMS
 BY THE LINK-MT3DMS PACKAGE V7 AT TIME STEP    2, STRESS PERIOD    1


 HEAD WILL BE SAVED ON UNIT    2 AT END OF TIME STEP    2, STRESS PERIOD    1

 DRAWDOWN WILL BE SAVED ON UNIT   14 AT END OF TIME STEP    2, STRESS PERIOD    1
1
  VOLUMETRIC BUDGET FOR ENTIRE MODEL AT END OF TIME STEP    2, STRESS PERIOD   1
  ------------------------------------------------------------------------------

     CUMULATIVE VOLUMES      L**3       RATES FOR THIS TIME STEP      L**3/T
     ------------------                 ------------------------

           IN:                                      IN:
           ---                                      ---
             STORAGE     =          56.3667               STORAGE     =          15.6486
       CONSTANT HEAD     =           0.0000         CONSTANT HEAD     =           0.0000
               WELLS     =           0.0000                 WELLS     =           0.0000
              DRAINS     =           0.0000                DRAINS     =           0.0000
     HEAD DEP BOUNDS     =         224.0659       HEAD DEP BOUNDS     =         115.4777

                TOTAL IN =         280.4326                  TOTAL IN =         131.1263

          OUT:                                     OUT:
          ----                                     ----
             STORAGE     =           0.0000               STORAGE     =           0.0000
       CONSTANT HEAD     =           0.0000         CONSTANT HEAD     =           0.0000
               WELLS     =         271.2209                 WELLS     =         127.8583
              DRAINS     =           9.2078                DRAINS     =           3.2663
     HEAD DEP BOUNDS     =           0.0000       HEAD DEP BOUNDS     =           0.0000

               TOTAL OUT =         280.4287                 TOTAL OUT =         131.1246

                IN - OUT =       3.8757E-03                  IN - OUT =       1.7853E-03

     PERCENT DISCREPANCY =           0.00         PERCENT DISCREPANCY =           0.00






         TIME SUMMARY AT END OF TIME STEP    2 IN STRESS PERIOD    1
                    SECONDS     MINUTES      HOURS       DAYS        YEARS
                    -----------------------------------------------------------
   TIME STEP LENGTH  86400.      1440.0      24.000      1.0000     2.73785E-03
 STRESS PERIOD TIME 1.72800E+05  2880.0      48.000      2.0000     5.47570E-03
         TOTAL TIME 1.72800E+05  2880.0      48.000      2.0000     5.47570E-03
1
 
 SOLVING FOR HEAD 
                                                   Max.-Head-Change                         Max.-Flux-Residual
  Residual-Control   Outer-Iter.   Inner-Iter.     Column Row Layer    Maximum-Head-Change  Column Row Layer    Maximum-Flux-Residual          L2-NORM 
          0                 1          21            62    1    21      -0.1749723924E+01      45    1   21        -0.1200041023E+00      0.1095561732E+01
          0                 2          15            57    1    30      -0.7183736610E+00      52    1   27        -0.2465209505E+01      0.8959366973E+01
          0                 3           5            40    1    21      -0.3639313766E-01      58    1   31        -0.2303613470E+00      0.6925451353E+00
          0                 4           2            53    1    17       0.1578562277E-02      32    1   17        -0.8638855371E-02      0.2119099057E-01
          0                 5           1            53    1    17       0.2045474096E-03      32    1   17        -0.4756783651E-03      0.1610048241E-02
          0                 6           1            49    1    26       0.4415906031E-03      58    1   32         0.1221232212E-03      0.1103042424E-02
          0                 7           1            53    1    17       0.1118921529E-03      55    1   31         0.1237356120E-03      0.9714606795E-03
          0                 8           1            45    1    24       0.3473312559E-03      44    1   28         0.7769799194E-04      0.8174672443E-03
          0                 9           1            35    1    18       0.7347827228E-04      55    1   31         0.9441202440E-04      0.7272423377E-03
          0                10           1            41    1    22       0.3556997515E-03      44    1   28         0.5866516307E-04      0.6231743373E-03
                                                   Max.-Head-Change                         Max.-Flux-Residual
  Residual-Control   Outer-Iter.   Inner-Iter.     Column Row Layer    Maximum-Head-Change  Column Row Layer    Maximum-Flux-Residual          L2-NORM 
          0                11           1            35    1     9       0.5441342646E-04      55    1   31         0.6647987941E-04      0.5440040263E-03
          0                12           1            41    1    12       0.3569711746E-03      44    1   28         0.4182665390E-04      0.4540558378E-03
          0                13           1            35    1    14       0.3577339209E-04      32    1   17         0.6759579227E-04      0.3882832203E-03
          0                14           1            41    1    21       0.2999841184E-03      44    1   28         0.2707104977E-04      0.3005379157E-03
          0                15           1            35    1    14       0.1940553213E-04      32    1   17         0.5819937962E-04      0.2547353067E-03
          0                16           1            41    1    12       0.1399105046E-03      44    1   28         0.1613371043E-04      0.1779061514E-03
          0                17           1            41    1    22       0.1357795369E-04      32    1   17         0.2856588411E-04      0.1598290029E-03
          0                18           1            41    1    21       0.4291024565E-04      42    1   24         0.1071450521E-04      0.1188548804E-03
          0                19           1            45    1    24       0.1256646996E-04      49    1   35         0.1099976531E-04      0.1070969440E-03

    ------------------------------------------------
       NWT REQUIRED           19 OUTER ITERATIONS 
       AND A TOTAL OF         58 INNER ITERATIONS.
    ------------------------------------------------

 OUTPUT CONTROL FOR STRESS PERIOD    1   TIME STEP    3
    PRINT BUDGET
    SAVE HEAD FOR ALL LAYERS
    SAVE DRAWDOWN FOR ALL LAYERS
    SAVE BUDGET
 UBDSV1 SAVING "         STORAGE" ON UNIT  40 AT TIME STEP  3, STRESS PERIOD   1
 UBDSV2 SAVING "   CONSTANT HEAD" ON UNIT  40 AT TIME STEP  3, STRESS PERIOD   1
 UBDSV1 SAVING "FLOW RIGHT FACE " ON UNIT  40 AT TIME STEP  3, STRESS PERIOD   1
 UBDSV1 SAVING "FLOW LOWER FACE " ON UNIT  40 AT TIME STEP  3, STRESS PERIOD   1
 UBDSV4 SAVING "           WELLS" ON UNIT  40 AT TIME STEP  3, STRESS PERIOD   1
 
 WELLS WITH REDUCED PUMPING FOR STRESS PERIOD     1 TIME STEP     3
   LAY   ROW   COL         APPL.Q          ACT.Q        GW-HEAD       CELL-BOT
    37     1    21  -0.100000E+03  -0.972519E+02   0.263514E+01   0.250000E+01
    37     1    60  -0.100000E+03  -0.235799E+02   0.351577E+01   0.350000E+01
 
 UBDSV4 SAVING "          DRAINS" ON UNIT  40 AT TIME STEP  3, STRESS PERIOD   1
 UBDSV4 SAVING " HEAD DEP BOUNDS" ON UNIT  40 AT TIME STEP  3, STRESS PERIOD   1

 SAVING SATURATED THICKNESS AND FLOW TERMS ON UNIT  333 FOR MT3DMS
 BY THE LINK-MT3DMS PACKAGE V7 AT TIME STEP    3, STRESS PERIOD    1


 HEAD WILL BE SAVED ON UNIT    2 AT END OF TIME STEP    3, STRESS PERIOD    1

 DRAWDOWN WILL BE SAVED ON UNIT   14 AT END OF TIME STEP    3, STRESS PERIOD    1
1
  VOLUMETRIC BUDGET FOR ENTIRE MODEL AT END OF TIME STEP    3, STRESS PERIOD   1
  ------------------------------------------------------------------------------

     CUMULATIVE VOLUMES      L**3       RATES FOR THIS TIME STEP      L**3/T
     ------------------                 ------------------------

           IN:                                      IN:
           ---                                      ---
             STORAGE     =          62.2029               STORAGE     =           5.8362
       CONSTANT HEAD     =           0.0000         CONSTANT HEAD     =           0.0000
               WELLS     =           0.0000                 WELLS     =           0.0000
              DRAINS     =           0.0000                DRAINS     =           0.0000
     HEAD DEP BOUNDS     =         341.1892       HEAD DEP BOUNDS     =         117.1233

                TOTAL IN =         403.3921                  TOTAL IN =         122.9595

          OUT:                                     OUT:
          ----                                     ----
             STORAGE     =           0.0000               STORAGE     =           0.0000
       CONSTANT HEAD     =           0.0000         CONSTANT HEAD     =           0.0000
               WELLS     =         392.0528                 WELLS     =         120.8318
              DRAINS     =          11.3335                DRAINS     =           2.1257
     HEAD DEP BOUNDS     =           0.0000       HEAD DEP BOUNDS     =           0.0000

               TOTAL OUT =         403.3863                 TOTAL OUT =         122.9575

                IN - OUT =       5.7983E-03                  IN - OUT =       1.9760E-03

     PERCENT DISCREPANCY =           0.00         PERCENT DISCREPANCY =           0.00






         TIME SUMMARY AT END OF TIME STEP    3 IN STRESS PERIOD    1
                    SECONDS     MINUTES      HOURS       DAYS        YEARS
                    -----------------------------------------------------------
   TIME STEP LENGTH  86400.      1440.0      24.000      1.0000     2.73785E-03
 STRESS PERIOD TIME 2.59200E+05  4320.0      72.000      3.0000     8.21355E-03
         TOTAL TIME 2.59200E+05  4320.0      72.000      3.0000     8.21355E-03
1
 
 SOLVING FOR HEAD 
                                                   Max.-Head-Change                         Max.-Flux-Residual
  Residual-Control   Outer-Iter.   Inner-Iter.     Column Row Layer    Maximum-Head-Change  Column Row Layer    Maximum-Flux-Residual          L2-NORM 
          0                 1          16            82    1    31      -0.5660575190E+00      51    1   27        -0.9395770230E-01      0.5518081613E+00
          0                 2          11            40    1    21       0.1685090810E+00      52    1   29         0.5394061184E+00      0.2056595998E+01
          0                 3           3            41    1    22       0.4729018709E-01      40    1   22        -0.3102423897E+00      0.4302870879E+00
          0                 4           2            41    1    11       0.4276140210E-02      40    1   22        -0.3083959266E-01      0.3994190140E-01
          0                 5           1            40    1    11      -0.2870299072E-03      40    1   22        -0.1939746703E-02      0.2845571073E-02
          0                 6           2            61    1    21       0.1602798121E-02      74    1   38         0.1904793776E-03      0.1398741399E-02
          0                 7           1            49    1    26       0.4595418464E-03      48    1   26        -0.2291115727E-02      0.3344373298E-02
          0                 8           1            41    1    22       0.1249582749E-03      48    1   26        -0.1314415685E-03      0.5517079450E-03
          0                 9           1            41    1    22       0.1315308767E-03      38    1   28         0.6667056937E-04      0.4550736753E-03
          0                10           1            41    1    11       0.9675444634E-04      38    1   28         0.6663569047E-04      0.4132286600E-03
                                                   Max.-Head-Change                         Max.-Flux-Residual
  Residual-Control   Outer-Iter.   Inner-Iter.     Column Row Layer    Maximum-Head-Change  Column Row Layer    Maximum-Flux-Residual          L2-NORM 
          0                11           1            41    1    21       0.8506613525E-04      38    1   28         0.5159549551E-04      0.3596643686E-03
          0                12           1            49    1    15       0.7154035998E-04      38    1   28         0.4841378325E-04      0.3283011504E-03
          0                13           1            41    1    21       0.6271184263E-04      37    1   29         0.3969412512E-04      0.2925033035E-03
          0                14           1            49    1    15       0.5316855759E-04      47    1   29         0.3944464459E-04      0.2690483253E-03
          0                15           1            49    1    26       0.5024352206E-04      37    1   29         0.3180340300E-04      0.2429888019E-03
          0                16           1            49    1    15       0.4009051542E-04      47    1   29         0.3328033424E-04      0.2249394091E-03
          0                17           1            49    1    26       0.4378673161E-04      37    1   29         0.2626657846E-04      0.2049734178E-03
          0                18           1            41    1    11       0.3252028284E-04      47    1   29         0.2816615341E-04      0.1906023540E-03
          0                19           1            49    1    26       0.3802407645E-04      37    1   29         0.2211226396E-04      0.1740628876E-03
          0                20           1            41    1    11       0.2741011639E-04      47    1   29         0.2384052203E-04      0.1621876478E-03
                                                   Max.-Head-Change                         Max.-Flux-Residual
  Residual-Control   Outer-Iter.   Inner-Iter.     Column Row Layer    Maximum-Head-Change  Column Row Layer    Maximum-Flux-Residual          L2-NORM 
          0                21           1            49    1    26       0.3266807146E-04      37    1   29         0.1876835432E-04      0.1481971050E-03
          0                22           1            41    1    11       0.2331157825E-04      47    1   29         0.2016652363E-04      0.1381870136E-03
          0                23           1            49    1    26       0.2790121608E-04      37    1   29         0.1598321268E-04      0.1263459613E-03
          0                24           1            41    1    11       0.1989808167E-04      47    1   29         0.1706555909E-04      0.1178375425E-03
          0                25           1            49    1    26       0.2377152854E-04      37    1   29         0.1363173180E-04      0.1078135624E-03
          0                26           1            41    1    11       0.1701229863E-04      47    1   29         0.1445596448E-04      0.1005565357E-03

    ------------------------------------------------
       NWT REQUIRED           26 OUTER ITERATIONS 
       AND A TOTAL OF         55 INNER ITERATIONS.
    ------------------------------------------------

 OUTPUT CONTROL FOR STRESS PERIOD    1   TIME STEP    4
    PRINT BUDGET
    SAVE HEAD FOR ALL LAYERS
    SAVE DRAWDOWN FOR ALL LAYERS
    SAVE BUDGET
 UBDSV1 SAVING "         STORAGE" ON UNIT  40 AT TIME STEP  4, STRESS PERIOD   1
 UBDSV2 SAVING "   CONSTANT HEAD" ON UNIT  40 AT TIME STEP  4, STRESS PERIOD   1
 UBDSV1 SAVING "FLOW RIGHT FACE " ON UNIT  40 AT TIME STEP  4, STRESS PERIOD   1
 UBDSV1 SAVING "FLOW LOWER FACE " ON UNIT  40 AT TIME STEP  4, STRESS PERIOD   1
 UBDSV4 SAVING "           WELLS" ON UNIT  40 AT TIME STEP  4, STRESS PERIOD   1
 
 WELLS WITH REDUCED PUMPING FOR STRESS PERIOD     1 TIME STEP     4
   LAY   ROW   COL         APPL.Q          ACT.Q        GW-HEAD       CELL-BOT
    37     1    21  -0.100000E+03  -0.969057E+02   0.263420E+01   0.250000E+01
    37     1    60  -0.100000E+03  -0.214386E+02   0.351494E+01   0.350000E+01
 
 UBDSV4 SAVING "          DRAINS" ON UNIT  40 AT TIME STEP  4, STRESS PERIOD   1
 UBDSV4 SAVING " HEAD DEP BOUNDS" ON UNIT  40 AT TIME STEP  4, STRESS PERIOD   1

 SAVING SATURATED THICKNESS AND FLOW TERMS ON UNIT  333 FOR MT3DMS
 BY THE LINK-MT3DMS PACKAGE V7 AT TIME STEP    4, STRESS PERIOD    1


 HEAD WILL BE SAVED ON UNIT    2 AT END OF TIME STEP    4, STRESS PERIOD    1

 DRAWDOWN WILL BE SAVED ON UNIT   14 AT END OF TIME STEP    4, STRESS PERIOD    1
1
  VOLUMETRIC BUDGET FOR ENTIRE MODEL AT END OF TIME STEP    4, STRESS PERIOD   1
  ------------------------------------------------------------------------------

     CUMULATIVE VOLUMES      L**3       RATES FOR THIS TIME STEP      L**3/T
     ------------------                 ------------------------

           IN:                                      IN:
           ---                                      ---
             STORAGE     =          64.5542               STORAGE     =           2.3513
       CONSTANT HEAD     =           0.0000         CONSTANT HEAD     =           0.0000
               WELLS     =           0.0000                 WELLS     =           0.0000
              DRAINS     =           0.0000                DRAINS     =           0.0000
     HEAD DEP BOUNDS     =         458.7717       HEAD DEP BOUNDS     =         117.5825

                TOTAL IN =         523.3259                  TOTAL IN =         119.9338

          OUT:                                     OUT:
          ----                                     ----
             STORAGE     =       3.2964E-10               STORAGE     =       3.2964E-10
       CONSTANT HEAD     =           0.0000         CONSTANT HEAD     =           0.0000
               WELLS     =         510.3971                 WELLS     =         118.3443
              DRAINS     =          12.9212                DRAINS     =           1.5877
     HEAD DEP BOUNDS     =           0.0000       HEAD DEP BOUNDS     =           0.0000

               TOTAL OUT =         523.3183                 TOTAL OUT =         119.9320

                IN - OUT =       7.6294E-03                  IN - OUT =       1.8158E-03

     PERCENT DISCREPANCY =           0.00         PERCENT DISCREPANCY =           0.00






         TIME SUMMARY AT END OF TIME STEP    4 IN STRESS PERIOD    1
                    SECONDS     MINUTES      HOURS       DAYS        YEARS
                    -----------------------------------------------------------
   TIME STEP LENGTH  86400.      1440.0      24.000      1.0000     2.73785E-03
 STRESS PERIOD TIME 3.45600E+05  5760.0      96.000      4.0000     1.09514E-02
         TOTAL TIME 3.45600E+05  5760.0      96.000      4.0000     1.09514E-02
1
 
 SOLVING FOR HEAD 
                                                   Max.-Head-Change                         Max.-Flux-Residual
  Residual-Control   Outer-Iter.   Inner-Iter.     Column Row Layer    Maximum-Head-Change  Column Row Layer    Maximum-Flux-Residual          L2-NORM 
          0                 1          11            87    1    34      -0.3475899730E+00      78    1   36        -0.4558742485E-01      0.2486377263E+00
          0                 2           6            49    1    26       0.5921890242E-01      86    1   37        -0.1930902370E+00      0.5183600651E+00
          0                 3           2            49    1    15       0.2215514527E-02      58    1   32        -0.9664451988E-02      0.1828462952E-01
          0                 4           1            87    1    39      -0.1632566512E-03      58    1   32        -0.5937714223E-03      0.1505624891E-02
          0                 5           1            83    1    37      -0.3188791645E-03      82    1   38        -0.2005207905E-03      0.1000745593E-02
          0                 6           1            78    1    40      -0.1526360964E-03      82    1   38        -0.1641465307E-03      0.9286345497E-03
          0                 7           1            82    1    40      -0.1402855432E-03      82    1   38        -0.1331699317E-03      0.7358502406E-03
          0                 8           1            78    1    40      -0.9968309242E-04      82    1   38        -0.1050269488E-03      0.6613699395E-03
          0                 9           1            82    1    40      -0.9679845107E-04      82    1   38        -0.8725229222E-04      0.5783198959E-03
          0                10           1            78    1    40      -0.7223513806E-04      82    1   38        -0.7663632125E-04      0.5264931185E-03
                                                   Max.-Head-Change                         Max.-Flux-Residual
  Residual-Control   Outer-Iter.   Inner-Iter.     Column Row Layer    Maximum-Head-Change  Column Row Layer    Maximum-Flux-Residual          L2-NORM 
          0                11           1            61    1    34      -0.7055560061E-04      81    1   39        -0.6489322172E-04      0.4689286859E-03
          0                12           1            35    1     9      -0.6116521778E-04      82    1   38        -0.5567889242E-04      0.4280579337E-03
          0                13           1            35    1    18      -0.6031751012E-04      81    1   39        -0.4984672881E-04      0.3861147787E-03
          0                14           1            35    1     9      -0.5421349388E-04      82    1   38        -0.4053526963E-04      0.3532120359E-03
          0                15           1            35    1    18      -0.5182423905E-04      81    1   39        -0.3857694153E-04      0.3212446009E-03
          0                16           1            35    1     9      -0.4762452009E-04      85    1   39        -0.3018119015E-04      0.2944610917E-03
          0                17           1            35    1    18      -0.4451204818E-04      81    1   39        -0.3011884625E-04      0.2692976383E-03
          0                18           1            35    1     9      -0.4155738850E-04      40    1   24        -0.2430473438E-04      0.2472632826E-03
          0                19           1            35    1    18      -0.3819318323E-04      81    1   39        -0.2373244307E-04      0.2269958729E-03
          0                20           1            35    1    17      -0.3608825869E-04      40    1   24        -0.2072332535E-04      0.2086918541E-03
                                                   Max.-Head-Change                         Max.-Flux-Residual
  Residual-Control   Outer-Iter.   Inner-Iter.     Column Row Layer    Maximum-Head-Change  Column Row Layer    Maximum-Flux-Residual          L2-NORM 
          0                21           1            35    1    18      -0.3273626543E-04      40    1   24        -0.1939140324E-04      0.1920989731E-03
          0                22           1            35    1    17      -0.3122893226E-04      40    1   24        -0.1766979867E-04      0.1767713204E-03
          0                23           1            35    1    18      -0.2803347917E-04      40    1   24        -0.1656835860E-04      0.1630276146E-03
          0                24           1            35    1    17      -0.2695378810E-04      40    1   24        -0.1506559968E-04      0.1501130606E-03
          0                25           1            35    1    18      -0.2398943628E-04      40    1   24        -0.1415016754E-04      0.1386341665E-03
          0                26           1            35    1    17      -0.2321859246E-04      40    1   24        -0.1284466271E-04      0.1277036418E-03
          0                27           1            35    1    18      -0.2051821556E-04      40    1   24        -0.1208106673E-04      0.1180589518E-03
          0                28           1            35    1    17      -0.1997140739E-04      40    1   24        -0.1095076223E-04      0.1087779891E-03
          0                29           1            35    1    18      -0.1754282297E-04      40    1   24        -0.1031202913E-04      0.1006394681E-03

    ------------------------------------------------
       NWT REQUIRED           29 OUTER ITERATIONS 
       AND A TOTAL OF         45 INNER ITERATIONS.
    ------------------------------------------------

 OUTPUT CONTROL FOR STRESS PERIOD    1   TIME STEP    5
    PRINT BUDGET
    SAVE HEAD FOR ALL LAYERS
    SAVE DRAWDOWN FOR ALL LAYERS
    SAVE BUDGET
 UBDSV1 SAVING "         STORAGE" ON UNIT  40 AT TIME STEP  5, STRESS PERIOD   1
 UBDSV2 SAVING "   CONSTANT HEAD" ON UNIT  40 AT TIME STEP  5, STRESS PERIOD   1
 UBDSV1 SAVING "FLOW RIGHT FACE " ON UNIT  40 AT TIME STEP  5, STRESS PERIOD   1
 UBDSV1 SAVING "FLOW LOWER FACE " ON UNIT  40 AT TIME STEP  5, STRESS PERIOD   1
 UBDSV4 SAVING "           WELLS" ON UNIT  40 AT TIME STEP  5, STRESS PERIOD   1
 
 WELLS WITH REDUCED PUMPING FOR STRESS PERIOD     1 TIME STEP     5
   LAY   ROW   COL         APPL.Q          ACT.Q        GW-HEAD       CELL-BOT
    37     1    21  -0.100000E+03  -0.968049E+02   0.263394E+01   0.250000E+01
    37     1    60  -0.100000E+03  -0.206827E+02   0.351463E+01   0.350000E+01
 
 UBDSV4 SAVING "          DRAINS" ON UNIT  40 AT TIME STEP  5, STRESS PERIOD   1
 UBDSV4 SAVING " HEAD DEP BOUNDS" ON UNIT  40 AT TIME STEP  5, STRESS PERIOD   1

 SAVING SATURATED THICKNESS AND FLOW TERMS ON UNIT  333 FOR MT3DMS
 BY THE LINK-MT3DMS PACKAGE V7 AT TIME STEP    5, STRESS PERIOD    1


 HEAD WILL BE SAVED ON UNIT    2 AT END OF TIME STEP    5, STRESS PERIOD    1

 DRAWDOWN WILL BE SAVED ON UNIT   14 AT END OF TIME STEP    5, STRESS PERIOD    1
1
  VOLUMETRIC BUDGET FOR ENTIRE MODEL AT END OF TIME STEP    5, STRESS PERIOD   1
  ------------------------------------------------------------------------------

     CUMULATIVE VOLUMES      L**3       RATES FOR THIS TIME STEP      L**3/T
     ------------------                 ------------------------

           IN:                                      IN:
           ---                                      ---
             STORAGE     =          65.5850               STORAGE     =           1.0308
       CONSTANT HEAD     =           0.0000         CONSTANT HEAD     =           0.0000
               WELLS     =           0.0000                 WELLS     =           0.0000
              DRAINS     =           0.0000                DRAINS     =           0.0000
     HEAD DEP BOUNDS     =         576.4843       HEAD DEP BOUNDS     =         117.7125

                TOTAL IN =         642.0693                  TOTAL IN =         118.7434

          OUT:                                     OUT:
          ----                                     ----
             STORAGE     =       1.3858E-09               STORAGE     =       1.0562E-09
       CONSTANT HEAD     =           0.0000         CONSTANT HEAD     =           0.0000
               WELLS     =         627.8846                 WELLS     =         117.4875
              DRAINS     =          14.1789                DRAINS     =           1.2577
     HEAD DEP BOUNDS     =           0.0000       HEAD DEP BOUNDS     =           0.0000

               TOTAL OUT =         642.0635                 TOTAL OUT =         118.7452

                IN - OUT =       5.7983E-03                  IN - OUT =      -1.8463E-03

     PERCENT DISCREPANCY =           0.00         PERCENT DISCREPANCY =          -0.00






         TIME SUMMARY AT END OF TIME STEP    5 IN STRESS PERIOD    1
                    SECONDS     MINUTES      HOURS       DAYS        YEARS
                    -----------------------------------------------------------
   TIME STEP LENGTH  86400.      1440.0      24.000      1.0000     2.73785E-03
 STRESS PERIOD TIME 4.32000E+05  7200.0      120.00      5.0000     1.36893E-02
         TOTAL TIME 4.32000E+05  7200.0      120.00      5.0000     1.36893E-02
1
 
 SOLVING FOR HEAD 
                                                   Max.-Head-Change                         Max.-Flux-Residual
  Residual-Control   Outer-Iter.   Inner-Iter.     Column Row Layer    Maximum-Head-Change  Column Row Layer    Maximum-Flux-Residual          L2-NORM 
          0                 1          11            83    1    32      -0.1981204855E+00      85    1   37        -0.2744078468E-01      0.1248311386E+00
          0                 2           6            82    1    32      -0.2650485186E-01      82    1   37        -0.7782452363E-01      0.1679518409E+00
          0                 3           1            59    1    20       0.7784568264E-03      81    1   37         0.2407521145E-02      0.4590595663E-02
          0                 4           1            76    1    40      -0.2130987501E-03      77    1   39        -0.1760891590E-03      0.6264053899E-03
          0                 5           1            80    1    36      -0.1081509091E-03      79    1   39        -0.1284081709E-03      0.5251288822E-03
          0                 6           1            76    1    40      -0.1279924411E-03      77    1   39        -0.9087607654E-04      0.4560317709E-03
          0                 7           1            79    1    37      -0.8332548964E-04      79    1   39        -0.8845654418E-04      0.4022305647E-03
          0                 8           1            76    1    40      -0.7274524924E-04      82    1   38        -0.6655158878E-04      0.3511873988E-03
          0                 9           1            79    1    37      -0.6809301285E-04      79    1   39        -0.5922738286E-04      0.3117917634E-03
          0                10           1            76    1    40      -0.4518854994E-04      83    1   39        -0.5102024422E-04      0.2818231588E-03
                                                   Max.-Head-Change                         Max.-Flux-Residual
  Residual-Control   Outer-Iter.   Inner-Iter.     Column Row Layer    Maximum-Head-Change  Column Row Layer    Maximum-Flux-Residual          L2-NORM 
          0                11           1            79    1    37      -0.5346201972E-04      79    1   39        -0.4058174800E-04      0.2477584296E-03
          0                12           1            76    1    40      -0.3030816368E-04      82    1   38        -0.3808572236E-04      0.2283602999E-03
          0                13           1            56    1    30      -0.4085024364E-04      79    1   39        -0.2841618784E-04      0.1999471894E-03
          0                14           1            56    1    19      -0.2197240309E-04      82    1   38        -0.2783475350E-04      0.1856345399E-03
          0                15           1            56    1    30      -0.3482398080E-04      79    1   39        -0.2036331590E-04      0.1632575888E-03
          0                16           1            56    1    19      -0.1855419131E-04      75    1   39        -0.2074030155E-04      0.1518737984E-03
          0                17           1            56    1    30      -0.2886561509E-04      43    1   25        -0.1522306459E-04      0.1347186968E-03
          0                18           1            56    1    19      -0.1585196604E-04      75    1   39        -0.1589126393E-04      0.1253518710E-03
          0                19           1            56    1    30      -0.2367205751E-04      43    1   25        -0.1289502796E-04      0.1121712808E-03
          0                20           1            56    1    19      -0.1363746592E-04      43    1   25        -0.1303432339E-04      0.1043417765E-03

    ------------------------------------------------
       NWT REQUIRED           20 OUTER ITERATIONS 
       AND A TOTAL OF         35 INNER ITERATIONS.
    ------------------------------------------------

 OUTPUT CONTROL FOR STRESS PERIOD    1   TIME STEP    6
    PRINT BUDGET
    SAVE HEAD FOR ALL LAYERS
    SAVE DRAWDOWN FOR ALL LAYERS
    SAVE BUDGET
 UBDSV1 SAVING "         STORAGE" ON UNIT  40 AT TIME STEP  6, STRESS PERIOD   1
 UBDSV2 SAVING "   CONSTANT HEAD" ON UNIT  40 AT TIME STEP  6, STRESS PERIOD   1
 UBDSV1 SAVING "FLOW RIGHT FACE " ON UNIT  40 AT TIME STEP  6, STRESS PERIOD   1
 UBDSV1 SAVING "FLOW LOWER FACE " ON UNIT  40 AT TIME STEP  6, STRESS PERIOD   1
 UBDSV4 SAVING "           WELLS" ON UNIT  40 AT TIME STEP  6, STRESS PERIOD   1
 
 WELLS WITH REDUCED PUMPING FOR STRESS PERIOD     1 TIME STEP     6
   LAY   ROW   COL         APPL.Q          ACT.Q        GW-HEAD       CELL-BOT
    37     1    21  -0.100000E+03  -0.967737E+02   0.263385E+01   0.250000E+01
    37     1    60  -0.100000E+03  -0.203954E+02   0.351452E+01   0.350000E+01
 
 UBDSV4 SAVING "          DRAINS" ON UNIT  40 AT TIME STEP  6, STRESS PERIOD   1
 UBDSV4 SAVING " HEAD DEP BOUNDS" ON UNIT  40 AT TIME STEP  6, STRESS PERIOD   1

 SAVING SATURATED THICKNESS AND FLOW TERMS ON UNIT  333 FOR MT3DMS
 BY THE LINK-MT3DMS PACKAGE V7 AT TIME STEP    6, STRESS PERIOD    1


 HEAD WILL BE SAVED ON UNIT    2 AT END OF TIME STEP    6, STRESS PERIOD    1

 DRAWDOWN WILL BE SAVED ON UNIT   14 AT END OF TIME STEP    6, STRESS PERIOD    1
1
  VOLUMETRIC BUDGET FOR ENTIRE MODEL AT END OF TIME STEP    6, STRESS PERIOD   1
  ------------------------------------------------------------------------------

     CUMULATIVE VOLUMES      L**3       RATES FOR THIS TIME STEP      L**3/T
     ------------------                 ------------------------

           IN:                                      IN:
           ---                                      ---
             STORAGE     =          66.0807               STORAGE     =           0.4957
       CONSTANT HEAD     =           0.0000         CONSTANT HEAD     =           0.0000
               WELLS     =           0.0000                 WELLS     =           0.0000
              DRAINS     =           0.0000                DRAINS     =           0.0000
     HEAD DEP BOUNDS     =         694.2363       HEAD DEP BOUNDS     =         117.7520

                TOTAL IN =         760.3170                  TOTAL IN =         118.2477

          OUT:                                     OUT:
          ----                                     ----
             STORAGE     =       2.8887E-09               STORAGE     =       1.5029E-09
       CONSTANT HEAD     =           0.0000         CONSTANT HEAD     =           0.0000
               WELLS     =         745.0538                 WELLS     =         117.1692
              DRAINS     =          15.2593                DRAINS     =           1.0805
     HEAD DEP BOUNDS     =           0.0000       HEAD DEP BOUNDS     =           0.0000

               TOTAL OUT =         760.3132                 TOTAL OUT =         118.2497

                IN - OUT =       3.8452E-03                  IN - OUT =      -1.9379E-03

     PERCENT DISCREPANCY =           0.00         PERCENT DISCREPANCY =          -0.00






         TIME SUMMARY AT END OF TIME STEP    6 IN STRESS PERIOD    1
                    SECONDS     MINUTES      HOURS       DAYS        YEARS
                    -----------------------------------------------------------
   TIME STEP LENGTH  86400.      1440.0      24.000      1.0000     2.73785E-03
 STRESS PERIOD TIME 5.18400E+05  8640.0      144.00      6.0000     1.64271E-02
         TOTAL TIME 5.18400E+05  8640.0      144.00      6.0000     1.64271E-02
1
 
 SOLVING FOR HEAD 
                                                   Max.-Head-Change                         Max.-Flux-Residual
  Residual-Control   Outer-Iter.   Inner-Iter.     Column Row Layer    Maximum-Head-Change  Column Row Layer    Maximum-Flux-Residual          L2-NORM 
          0                 1           6            80    1    37      -0.1068066677E+00      81    1   37        -0.1576852162E-01      0.6790808816E-01
          0                 2           6            97    1    39      -0.1304964046E-01      97    1   39        -0.1889046032E-01      0.2797661567E-01
          0                 3           1            56    1    19      -0.1112805366E-03      97    1   39        -0.1870063403E-03      0.7387130931E-03
          0                 4           1            34    1    17      -0.1622885553E-03      97    1   39         0.6211422711E-04      0.5978776011E-03
          0                 5           1            56    1    18      -0.7717882990E-04      97    1   39        -0.5317807643E-04      0.5151404744E-03
          0                 6           1            56    1    30      -0.1533352763E-03      42    1   24        -0.4141954561E-04      0.4648920853E-03
          0                 7           1            56    1    18      -0.5486379249E-04      37    1   21        -0.4315164625E-04      0.4112764603E-03
          0                 8           1            56    1    30      -0.1496844530E-03      42    1   24        -0.3302774827E-04      0.3697144549E-03
          0                 9           1            56    1    19      -0.3977746184E-04      37    1   21        -0.3616037020E-04      0.3224533060E-03
          0                10           1            56    1    18      -0.1460057636E-03      42    1   24        -0.2552362601E-04      0.2855155899E-03
                                                   Max.-Head-Change                         Max.-Flux-Residual
  Residual-Control   Outer-Iter.   Inner-Iter.     Column Row Layer    Maximum-Head-Change  Column Row Layer    Maximum-Flux-Residual          L2-NORM 
          0                11           1            56    1    30      -0.2901451550E-04      37    1   21        -0.2988886877E-04      0.2422641403E-03
          0                12           1            56    1    18      -0.1197172239E-03      42    1   24        -0.1854381588E-04      0.2082278967E-03
          0                13           1            56    1    30      -0.2054218346E-04      37    1   21        -0.2173819635E-04      0.1756869609E-03
          0                14           1            56    1    18      -0.9090670762E-04      46    1   26        -0.1302029561E-04      0.1465067616E-03
          0                15           1            56    1    30      -0.1409577488E-04      74    1   39         0.1725083793E-04      0.1239175773E-03
          0                16           1            56    1    18      -0.6220888179E-04      46    1   26        -0.8904651779E-05      0.1003578979E-03

    ------------------------------------------------
       NWT REQUIRED           16 OUTER ITERATIONS 
       AND A TOTAL OF         26 INNER ITERATIONS.
    ------------------------------------------------

 OUTPUT CONTROL FOR STRESS PERIOD    1   TIME STEP    7
    PRINT BUDGET
    SAVE HEAD FOR ALL LAYERS
    SAVE DRAWDOWN FOR ALL LAYERS
    SAVE BUDGET
 UBDSV1 SAVING "         STORAGE" ON UNIT  40 AT TIME STEP  7, STRESS PERIOD   1
 UBDSV2 SAVING "   CONSTANT HEAD" ON UNIT  40 AT TIME STEP  7, STRESS PERIOD   1
 UBDSV1 SAVING "FLOW RIGHT FACE " ON UNIT  40 AT TIME STEP  7, STRESS PERIOD   1
 UBDSV1 SAVING "FLOW LOWER FACE " ON UNIT  40 AT TIME STEP  7, STRESS PERIOD   1
 UBDSV4 SAVING "           WELLS" ON UNIT  40 AT TIME STEP  7, STRESS PERIOD   1
 
 WELLS WITH REDUCED PUMPING FOR STRESS PERIOD     1 TIME STEP     7
   LAY   ROW   COL         APPL.Q          ACT.Q        GW-HEAD       CELL-BOT
    37     1    21  -0.100000E+03  -0.967639E+02   0.263383E+01   0.250000E+01
    37     1    60  -0.100000E+03  -0.202725E+02   0.351447E+01   0.350000E+01
 
 UBDSV4 SAVING "          DRAINS" ON UNIT  40 AT TIME STEP  7, STRESS PERIOD   1
 UBDSV4 SAVING " HEAD DEP BOUNDS" ON UNIT  40 AT TIME STEP  7, STRESS PERIOD   1

 SAVING SATURATED THICKNESS AND FLOW TERMS ON UNIT  333 FOR MT3DMS
 BY THE LINK-MT3DMS PACKAGE V7 AT TIME STEP    7, STRESS PERIOD    1


 HEAD WILL BE SAVED ON UNIT    2 AT END OF TIME STEP    7, STRESS PERIOD    1

 DRAWDOWN WILL BE SAVED ON UNIT   14 AT END OF TIME STEP    7, STRESS PERIOD    1
1
  VOLUMETRIC BUDGET FOR ENTIRE MODEL AT END OF TIME STEP    7, STRESS PERIOD   1
  ------------------------------------------------------------------------------

     CUMULATIVE VOLUMES      L**3       RATES FOR THIS TIME STEP      L**3/T
     ------------------                 ------------------------

           IN:                                      IN:
           ---                                      ---
             STORAGE     =          66.3378               STORAGE     =           0.2571
       CONSTANT HEAD     =           0.0000         CONSTANT HEAD     =           0.0000
               WELLS     =           0.0000                 WELLS     =           0.0000
              DRAINS     =           0.0000                DRAINS     =           0.0000
     HEAD DEP BOUNDS     =         812.0006       HEAD DEP BOUNDS     =         117.7644

                TOTAL IN =         878.3384                  TOTAL IN =         118.0214

          OUT:                                     OUT:
          ----                                     ----
             STORAGE     =       4.5143E-09               STORAGE     =       1.6256E-09
       CONSTANT HEAD     =           0.0000         CONSTANT HEAD     =           0.0000
               WELLS     =         862.0902                 WELLS     =         117.0364
              DRAINS     =          16.2458                DRAINS     =           0.9865
     HEAD DEP BOUNDS     =           0.0000       HEAD DEP BOUNDS     =           0.0000

               TOTAL OUT =         878.3361                 TOTAL OUT =         118.0229

                IN - OUT =       2.3193E-03                  IN - OUT =      -1.4877E-03

     PERCENT DISCREPANCY =           0.00         PERCENT DISCREPANCY =          -0.00






         TIME SUMMARY AT END OF TIME STEP    7 IN STRESS PERIOD    1
                    SECONDS     MINUTES      HOURS       DAYS        YEARS
                    -----------------------------------------------------------
   TIME STEP LENGTH  86400.      1440.0      24.000      1.0000     2.73785E-03
 STRESS PERIOD TIME 6.04800E+05  10080.      168.00      7.0000     1.91650E-02
         TOTAL TIME 6.04800E+05  10080.      168.00      7.0000     1.91650E-02
1
 
 SOLVING FOR HEAD 
                                                   Max.-Head-Change                         Max.-Flux-Residual
  Residual-Control   Outer-Iter.   Inner-Iter.     Column Row Layer    Maximum-Head-Change  Column Row Layer    Maximum-Flux-Residual          L2-NORM 
          0                 1           6            79    1    30      -0.6049951391E-01      79    1   37        -0.8731592227E-02      0.3883006896E-01
          0                 2           2            95    1    38       0.4881050038E-02      94    1   39         0.3078694053E-01      0.5473239772E-01
          0                 3           1            95    1    38       0.2319885900E-03      95    1   39        -0.5886680461E-03      0.1405984972E-02
          0                 4           1            88    1    40       0.2910198603E-03      83    1   39         0.1019056838E-03      0.6891305047E-03
          0                 5           1            56    1    19      -0.6737646240E-04      78    1   38         0.1447609128E-03      0.5521844528E-03
          0                 6           1            56    1    30      -0.1996603363E-03      75    1   39         0.4556995335E-04      0.4790534532E-03
          0                 7           1            56    1    19      -0.4608647611E-04      78    1   38         0.9193870557E-04      0.4049613386E-03
          0                 8           1            56    1    18      -0.1787797134E-03      46    1   26        -0.3212215779E-04      0.3537960219E-03
          0                 9           1            56    1    21      -0.3107560484E-04      78    1   38         0.5607272681E-04      0.2995473687E-03
          0                10           1            56    1    18      -0.1731106138E-03      46    1   26        -0.2358798321E-04      0.2581795319E-03
                                                   Max.-Head-Change                         Max.-Flux-Residual
  Residual-Control   Outer-Iter.   Inner-Iter.     Column Row Layer    Maximum-Head-Change  Column Row Layer    Maximum-Flux-Residual          L2-NORM 
          0                11           1            56    1    29      -0.2031370493E-04      78    1   38         0.3980350164E-04      0.2072047372E-03
          0                12           1            56    1    18      -0.1587745317E-03      46    1   26        -0.1585189034E-04      0.1737041651E-03
          0                13           1            56    1    30      -0.1176244137E-04      79    1   39         0.2157967410E-04      0.1283433512E-03

    ------------------------------------------------
       NWT REQUIRED           13 OUTER ITERATIONS 
       AND A TOTAL OF         19 INNER ITERATIONS.
    ------------------------------------------------

 OUTPUT CONTROL FOR STRESS PERIOD    1   TIME STEP    8
    PRINT BUDGET
    SAVE HEAD FOR ALL LAYERS
    SAVE DRAWDOWN FOR ALL LAYERS
    SAVE BUDGET
 UBDSV1 SAVING "         STORAGE" ON UNIT  40 AT TIME STEP  8, STRESS PERIOD   1
 UBDSV2 SAVING "   CONSTANT HEAD" ON UNIT  40 AT TIME STEP  8, STRESS PERIOD   1
 UBDSV1 SAVING "FLOW RIGHT FACE " ON UNIT  40 AT TIME STEP  8, STRESS PERIOD   1
 UBDSV1 SAVING "FLOW LOWER FACE " ON UNIT  40 AT TIME STEP  8, STRESS PERIOD   1
 UBDSV4 SAVING "           WELLS" ON UNIT  40 AT TIME STEP  8, STRESS PERIOD   1
 
 WELLS WITH REDUCED PUMPING FOR STRESS PERIOD     1 TIME STEP     8
   LAY   ROW   COL         APPL.Q          ACT.Q        GW-HEAD       CELL-BOT
    37     1    21  -0.100000E+03  -0.967607E+02   0.263382E+01   0.250000E+01
    37     1    60  -0.100000E+03  -0.202159E+02   0.351444E+01   0.350000E+01
 
 UBDSV4 SAVING "          DRAINS" ON UNIT  40 AT TIME STEP  8, STRESS PERIOD   1
 UBDSV4 SAVING " HEAD DEP BOUNDS" ON UNIT  40 AT TIME STEP  8, STRESS PERIOD   1

 SAVING SATURATED THICKNESS AND FLOW TERMS ON UNIT  333 FOR MT3DMS
 BY THE LINK-MT3DMS PACKAGE V7 AT TIME STEP    8, STRESS PERIOD    1


 HEAD WILL BE SAVED ON UNIT    2 AT END OF TIME STEP    8, STRESS PERIOD    1

 DRAWDOWN WILL BE SAVED ON UNIT   14 AT END OF TIME STEP    8, STRESS PERIOD    1
1
  VOLUMETRIC BUDGET FOR ENTIRE MODEL AT END OF TIME STEP    8, STRESS PERIOD   1
  ------------------------------------------------------------------------------

     CUMULATIVE VOLUMES      L**3       RATES FOR THIS TIME STEP      L**3/T
     ------------------                 ------------------------

           IN:                                      IN:
           ---                                      ---
             STORAGE     =          66.4804               STORAGE     =           0.1426
       CONSTANT HEAD     =           0.0000         CONSTANT HEAD     =           0.0000
               WELLS     =           0.0000                 WELLS     =           0.0000
              DRAINS     =           0.0000                DRAINS     =           0.0000
     HEAD DEP BOUNDS     =         929.7688       HEAD DEP BOUNDS     =         117.7682

                TOTAL IN =         996.2492                  TOTAL IN =         117.9108

          OUT:                                     OUT:
          ----                                     ----
             STORAGE     =       6.1202E-09               STORAGE     =       1.6059E-09
       CONSTANT HEAD     =           0.0000         CONSTANT HEAD     =           0.0000
               WELLS     =         979.0668                 WELLS     =         116.9766
              DRAINS     =          17.1821                DRAINS     =           0.9363
     HEAD DEP BOUNDS     =           0.0000       HEAD DEP BOUNDS     =           0.0000

               TOTAL OUT =         996.2490                 TOTAL OUT =         117.9129

                IN - OUT =       2.4414E-04                  IN - OUT =      -2.0676E-03

     PERCENT DISCREPANCY =           0.00         PERCENT DISCREPANCY =          -0.00






         TIME SUMMARY AT END OF TIME STEP    8 IN STRESS PERIOD    1
                    SECONDS     MINUTES      HOURS       DAYS        YEARS
                    -----------------------------------------------------------
   TIME STEP LENGTH  86400.      1440.0      24.000      1.0000     2.73785E-03
 STRESS PERIOD TIME 6.91200E+05  11520.      192.00      8.0000     2.19028E-02
         TOTAL TIME 6.91200E+05  11520.      192.00      8.0000     2.19028E-02
1
 
 SOLVING FOR HEAD 
                                                   Max.-Head-Change                         Max.-Flux-Residual
  Residual-Control   Outer-Iter.   Inner-Iter.     Column Row Layer    Maximum-Head-Change  Column Row Layer    Maximum-Flux-Residual          L2-NORM 
          0                 1           6            86    1    37      -0.3451603662E-01      79    1   37        -0.4709407108E-02      0.2213758264E-01
          0                 2           2            70    1    26      -0.2428792715E-02      89    1   38         0.6048814488E-02      0.1282258476E-01
          0                 3           1            69    1    39      -0.1458852950E-03      69    1   39        -0.1561715965E-03      0.5477367199E-03
          0                 4           1            71    1    27      -0.1048153935E-03      71    1   37        -0.9786150981E-04      0.3850466331E-03
          0                 5           1            69    1    39      -0.9882173896E-04      69    1   39        -0.7400092667E-04      0.3171436519E-03
          0                 6           1            71    1    27      -0.4310754866E-04      73    1   39        -0.5507210327E-04      0.2732566041E-03
          0                 7           1            70    1    40      -0.6295707446E-04      69    1   39        -0.3971271303E-04      0.2329364295E-03
          0                 8           1            56    1    30      -0.2579862569E-04      73    1   39        -0.3678580636E-04      0.2099928112E-03
          0                 9           1            56    1    18      -0.5104763027E-04      69    1   39        -0.2427063374E-04      0.1813041389E-03
          0                10           1            56    1    21      -0.2020755297E-04      73    1   39        -0.2642889573E-04      0.1652604712E-03
                                                   Max.-Head-Change                         Max.-Flux-Residual
  Residual-Control   Outer-Iter.   Inner-Iter.     Column Row Layer    Maximum-Head-Change  Column Row Layer    Maximum-Flux-Residual          L2-NORM 
          0                11           1            56    1    18      -0.4192374214E-04      69    1   39        -0.1621421168E-04      0.1445434548E-03
          0                12           1            56    1    19      -0.1594519069E-04      73    1   39        -0.1991923703E-04      0.1319937023E-03
          0                13           1            56    1    18      -0.3487415049E-04      69    1   39        -0.1136116387E-04      0.1165029671E-03
          0                14           1            56    1    19      -0.1262951402E-04      73    1   39        -0.1544234298E-04      0.1063167274E-03

    ------------------------------------------------
       NWT REQUIRED           14 OUTER ITERATIONS 
       AND A TOTAL OF         20 INNER ITERATIONS.
    ------------------------------------------------

 OUTPUT CONTROL FOR STRESS PERIOD    1   TIME STEP    9
    PRINT BUDGET
    SAVE HEAD FOR ALL LAYERS
    SAVE DRAWDOWN FOR ALL LAYERS
    SAVE BUDGET
 UBDSV1 SAVING "         STORAGE" ON UNIT  40 AT TIME STEP  9, STRESS PERIOD   1
 UBDSV2 SAVING "   CONSTANT HEAD" ON UNIT  40 AT TIME STEP  9, STRESS PERIOD   1
 UBDSV1 SAVING "FLOW RIGHT FACE " ON UNIT  40 AT TIME STEP  9, STRESS PERIOD   1
 UBDSV1 SAVING "FLOW LOWER FACE " ON UNIT  40 AT TIME STEP  9, STRESS PERIOD   1
 UBDSV4 SAVING "           WELLS" ON UNIT  40 AT TIME STEP  9, STRESS PERIOD   1
 
 WELLS WITH REDUCED PUMPING FOR STRESS PERIOD     1 TIME STEP     9
   LAY   ROW   COL         APPL.Q          ACT.Q        GW-HEAD       CELL-BOT
    37     1    21  -0.100000E+03  -0.967595E+02   0.263382E+01   0.250000E+01
    37     1    60  -0.100000E+03  -0.201869E+02   0.351443E+01   0.350000E+01
 
 UBDSV4 SAVING "          DRAINS" ON UNIT  40 AT TIME STEP  9, STRESS PERIOD   1
 UBDSV4 SAVING " HEAD DEP BOUNDS" ON UNIT  40 AT TIME STEP  9, STRESS PERIOD   1

 SAVING SATURATED THICKNESS AND FLOW TERMS ON UNIT  333 FOR MT3DMS
 BY THE LINK-MT3DMS PACKAGE V7 AT TIME STEP    9, STRESS PERIOD    1


 HEAD WILL BE SAVED ON UNIT    2 AT END OF TIME STEP    9, STRESS PERIOD    1

 DRAWDOWN WILL BE SAVED ON UNIT   14 AT END OF TIME STEP    9, STRESS PERIOD    1
1
  VOLUMETRIC BUDGET FOR ENTIRE MODEL AT END OF TIME STEP    9, STRESS PERIOD   1
  ------------------------------------------------------------------------------

     CUMULATIVE VOLUMES      L**3       RATES FOR THIS TIME STEP      L**3/T
     ------------------                 ------------------------

           IN:                                      IN:
           ---                                      ---
             STORAGE     =          66.5603               STORAGE     =       7.9876E-02
       CONSTANT HEAD     =           0.0000         CONSTANT HEAD     =           0.0000
               WELLS     =           0.0000                 WELLS     =           0.0000
              DRAINS     =           0.0000                DRAINS     =           0.0000
     HEAD DEP BOUNDS     =        1047.5385       HEAD DEP BOUNDS     =         117.7697

                TOTAL IN =        1114.0988                  TOTAL IN =         117.8495

          OUT:                                     OUT:
          ----                                     ----
             STORAGE     =       7.7922E-09               STORAGE     =       1.6720E-09
       CONSTANT HEAD     =           0.0000         CONSTANT HEAD     =           0.0000
               WELLS     =        1096.0132                 WELLS     =         116.9464
              DRAINS     =          18.0872                DRAINS     =           0.9051
     HEAD DEP BOUNDS     =           0.0000       HEAD DEP BOUNDS     =           0.0000

               TOTAL OUT =        1114.1005                 TOTAL OUT =         117.8515

                IN - OUT =      -1.7090E-03                  IN - OUT =      -1.9760E-03

     PERCENT DISCREPANCY =          -0.00         PERCENT DISCREPANCY =          -0.00






         TIME SUMMARY AT END OF TIME STEP    9 IN STRESS PERIOD    1
                    SECONDS     MINUTES      HOURS       DAYS        YEARS
                    -----------------------------------------------------------
   TIME STEP LENGTH  86400.      1440.0      24.000      1.0000     2.73785E-03
 STRESS PERIOD TIME 7.77600E+05  12960.      216.00      9.0000     2.46407E-02
         TOTAL TIME 7.77600E+05  12960.      216.00      9.0000     2.46407E-02
1
 
 SOLVING FOR HEAD 
                                                   Max.-Head-Change                         Max.-Flux-Residual
  Residual-Control   Outer-Iter.   Inner-Iter.     Column Row Layer    Maximum-Head-Change  Column Row Layer    Maximum-Flux-Residual          L2-NORM 
          0                 1           5            86    1    37      -0.1991570288E-01      83    1   37        -0.2694649022E-02      0.1289815406E-01
          0                 2           1            99    1    40       0.4619647675E-03      99    1   40         0.3611505246E-02      0.4707575130E-02
          0                 3           1            68    1    40      -0.1282355960E-03      99    1   40         0.8665225919E-04      0.3504222143E-03
          0                 4           1            68    1    40      -0.4932400137E-04      91    1   39         0.3712217570E-04      0.2177610750E-03
          0                 5           1            71    1    39      -0.3984653251E-04      78    1   38        -0.3346632947E-04      0.1702478206E-03
          0                 6           1            75    1    39      -0.2734990016E-04      75    1   39        -0.2432591985E-04      0.1423798375E-03
          0                 7           1            56    1    30      -0.2272656972E-04      78    1   38        -0.2240216841E-04      0.1242984115E-03
          0                 8           1            56    1    18      -0.2485842430E-04      75    1   39        -0.1695702577E-04      0.1096413389E-03

    ------------------------------------------------
       NWT REQUIRED            8 OUTER ITERATIONS 
       AND A TOTAL OF         12 INNER ITERATIONS.
    ------------------------------------------------

 OUTPUT CONTROL FOR STRESS PERIOD    1   TIME STEP   10
    PRINT BUDGET
    SAVE HEAD FOR ALL LAYERS
    SAVE DRAWDOWN FOR ALL LAYERS
    SAVE BUDGET
 UBDSV1 SAVING "         STORAGE" ON UNIT  40 AT TIME STEP 10, STRESS PERIOD   1
 UBDSV2 SAVING "   CONSTANT HEAD" ON UNIT  40 AT TIME STEP 10, STRESS PERIOD   1
 UBDSV1 SAVING "FLOW RIGHT FACE " ON UNIT  40 AT TIME STEP 10, STRESS PERIOD   1
 UBDSV1 SAVING "FLOW LOWER FACE " ON UNIT  40 AT TIME STEP 10, STRESS PERIOD   1
 UBDSV4 SAVING "           WELLS" ON UNIT  40 AT TIME STEP 10, STRESS PERIOD   1
 
 WELLS WITH REDUCED PUMPING FOR STRESS PERIOD     1 TIME STEP    10
   LAY   ROW   COL         APPL.Q          ACT.Q        GW-HEAD       CELL-BOT
    37     1    21  -0.100000E+03  -0.967590E+02   0.263382E+01   0.250000E+01
    37     1    60  -0.100000E+03  -0.201715E+02   0.351443E+01   0.350000E+01
 
 UBDSV4 SAVING "          DRAINS" ON UNIT  40 AT TIME STEP 10, STRESS PERIOD   1
 UBDSV4 SAVING " HEAD DEP BOUNDS" ON UNIT  40 AT TIME STEP 10, STRESS PERIOD   1

 SAVING SATURATED THICKNESS AND FLOW TERMS ON UNIT  333 FOR MT3DMS
 BY THE LINK-MT3DMS PACKAGE V7 AT TIME STEP   10, STRESS PERIOD    1


 HEAD WILL BE SAVED ON UNIT    2 AT END OF TIME STEP   10, STRESS PERIOD    1

 DRAWDOWN WILL BE SAVED ON UNIT   14 AT END OF TIME STEP   10, STRESS PERIOD    1
1
  VOLUMETRIC BUDGET FOR ENTIRE MODEL AT END OF TIME STEP   10, STRESS PERIOD   1
  ------------------------------------------------------------------------------

     CUMULATIVE VOLUMES      L**3       RATES FOR THIS TIME STEP      L**3/T
     ------------------                 ------------------------

           IN:                                      IN:
           ---                                      ---
             STORAGE     =          66.6057               STORAGE     =       4.5426E-02
       CONSTANT HEAD     =           0.0000         CONSTANT HEAD     =           0.0000
               WELLS     =           0.0000                 WELLS     =           0.0000
              DRAINS     =           0.0000                DRAINS     =           0.0000
     HEAD DEP BOUNDS     =        1165.3087       HEAD DEP BOUNDS     =         117.7703

                TOTAL IN =        1231.9144                  TOTAL IN =         117.8157

          OUT:                                     OUT:
          ----                                     ----
             STORAGE     =       9.5502E-09               STORAGE     =       1.7580E-09
       CONSTANT HEAD     =           0.0000         CONSTANT HEAD     =           0.0000
               WELLS     =        1212.9437                 WELLS     =         116.9305
              DRAINS     =          18.9743                DRAINS     =           0.8871
     HEAD DEP BOUNDS     =           0.0000       HEAD DEP BOUNDS     =           0.0000

               TOTAL OUT =        1231.9181                 TOTAL OUT =         117.8176

                IN - OUT =      -3.6621E-03                  IN - OUT =      -1.9379E-03

     PERCENT DISCREPANCY =          -0.00         PERCENT DISCREPANCY =          -0.00






         TIME SUMMARY AT END OF TIME STEP   10 IN STRESS PERIOD    1
                    SECONDS     MINUTES      HOURS       DAYS        YEARS
                    -----------------------------------------------------------
   TIME STEP LENGTH  86400.      1440.0      24.000      1.0000     2.73785E-03
 STRESS PERIOD TIME 8.64000E+05  14400.      240.00      10.000     2.73785E-02
         TOTAL TIME 8.64000E+05  14400.      240.00      10.000     2.73785E-02
1
1
                            STRESS PERIOD NO.    2, LENGTH =   10.00000    
                            -----------------------------------------------

                              NUMBER OF TIME STEPS =    10

                               MULTIPLIER FOR DELT =     1.000

                            INITIAL TIME STEP SIZE =   1.000000    

 WELL NO.  LAYER   ROW   COL   STRESS RATE         IFACE           QFACT           CELLGRP         
 --------------------------------------------------------------------------------------------------
      1     37      1     21      -100.0           0.000           0.000          -1.000    
      2     37      1     60      -100.0           0.000           0.000          -1.000    

      2 WELLS

 REUSING NON-PARAMETER DRAINS FROM LAST STRESS PERIOD

     75 DRAINS

 BOUND. NO. LAYER   ROW   COL     STAGE      CONDUCTANCE         IFACE           CONDFACT        CELLGRP         
 ----------------------------------------------------------------------------------------------------------------
      1      3      1     13       38.00           0.000           6.000           0.000          -1.000    
      2      4      1     13       38.00           0.000           6.000           0.000          -1.000    
      3      5      1     12       38.00           0.000           6.000           0.000          -1.000    
      4      6      1     12       38.00           0.000           6.000           0.000          -1.000    
      5      7      1     12       38.00           0.000           6.000           0.000          -1.000    
      6      8      1     11       38.00           0.000           6.000           0.000          -1.000    
      7      9      1     11       38.00           0.000           6.000           0.000          -1.000    
      8     10      1     11       38.00           0.000           6.000           0.000          -1.000    
      9     11      1     10       38.00           0.000           6.000           0.000          -1.000    
     10     12      1     10       38.00           0.000           6.000           0.000          -1.000    
     11     13      1     10       38.00           0.000           6.000           0.000          -1.000    
     12     14      1      9       38.00           0.000           6.000           0.000          -1.000    
     13     15      1      9       38.00           0.000           6.000           0.000          -1.000    
     14     16      1      9       38.00           0.000           6.000           0.000          -1.000    
     15     17      1      8       38.00           0.000           6.000           0.000          -1.000    
     16     18      1      8       38.00           0.000           6.000           0.000          -1.000    
     17     19      1      8       22.00          0.1000E+05       6.000           0.000          -1.000    
     18     20      1      7       22.00          0.1000E+05       6.000           0.000          -1.000    
     19     21      1      7       22.00          0.1000E+05       6.000           0.000          -1.000    
     20     22      1      7       22.00          0.1000E+05       6.000           0.000          -1.000    
     21     23      1      6       22.00          0.1000E+05       6.000           0.000          -1.000    
     22     24      1      6       22.00          0.1000E+05       6.000           0.000          -1.000    
     23     25      1      6       22.00          0.1000E+05       6.000           0.000          -1.000    
     24     26      1      5       22.00          0.1000E+05       6.000           0.000          -1.000    
     25     27      1      5       22.00          0.1000E+05       6.000           0.000          -1.000    
     26     28      1      5       22.00          0.1000E+05       6.000           0.000          -1.000    
     27     29      1      4       22.00          0.1000E+05       6.000           0.000          -1.000    
     28     30      1      4       22.00          0.1000E+05       6.000           0.000          -1.000    
     29     31      1      4       22.00          0.1000E+05       6.000           0.000          -1.000    
     30     32      1      3       22.00          0.1000E+05       6.000           0.000          -1.000    
     31     33      1      3       22.00          0.1000E+05       6.000           0.000          -1.000    
     32     34      1      3       22.00          0.1000E+05       6.000           0.000          -1.000    
     33     35      1      2       22.00          0.1000E+05       6.000           0.000          -1.000    
     34     36      1      2       22.00          0.1000E+05       6.000           0.000          -1.000    
     35     37      1      2       22.00          0.1000E+05       6.000           0.000          -1.000    
     36     38      1      1       22.00          0.1000E+05       6.000           0.000          -1.000    
     37     39      1      1       22.00          0.1000E+05       6.000           0.000          -1.000    
     38     40      1      1       22.00          0.1000E+05       6.000           0.000          -1.000    

     38 GHB CELLS
 
 SOLVING FOR HEAD 
                                                   Max.-Head-Change                         Max.-Flux-Residual
  Residual-Control   Outer-Iter.   Inner-Iter.     Column Row Layer    Maximum-Head-Change  Column Row Layer    Maximum-Flux-Residual          L2-NORM 
          0                 1          31            23    1     2      -0.1882452975E+02       6    1   24        -0.1600000000E+06      0.7504665217E+06
          0                 2          16            14    1     3      -0.7904066481E+01      21    1   37         0.4563557072E+02      0.1011508521E+03
          0                 3          15            30    1     5       0.6928106677E+00      21    1   37        -0.1409753452E+02      0.1621197712E+02
          0                 4           6            53    1    31      -0.7434978626E-01      61    1   38         0.3946113584E+00      0.9775440358E+00
          0                 5           2            53    1    17      -0.5460162508E-02      61    1   38         0.2871546250E-01      0.6663591338E-01
          0                 6           1            54    1    17       0.5032202944E-03      61    1   38         0.2310905119E-02      0.5087448135E-02
          0                 7           1            75    1    37       0.4923608617E-03      69    1   39         0.2125736595E-03      0.1099116386E-02
          0                 8           1            75    1    37       0.2126375884E-03      73    1   39         0.1680743235E-03      0.8188522554E-03
          0                 9           1            76    1    28       0.3119085000E-03      77    1   39         0.1292994931E-03      0.6239594155E-03
          0                10           1            78    1    40       0.1100485703E-03      73    1   39         0.8998405318E-04      0.5114481667E-03
                                                   Max.-Head-Change                         Max.-Flux-Residual
  Residual-Control   Outer-Iter.   Inner-Iter.     Column Row Layer    Maximum-Head-Change  Column Row Layer    Maximum-Flux-Residual          L2-NORM 
          0                11           1            78    1    40       0.1732842841E-03      77    1   39         0.7497238008E-04      0.3924604541E-03
          0                12           1            78    1    40       0.6504665214E-04      73    1   39         0.5570421408E-04      0.3359183698E-03
          0                13           1            79    1    39       0.8715784087E-04      77    1   39         0.4558045453E-04      0.2614466932E-03
          0                14           1            81    1    39       0.4431811655E-04      73    1   39         0.3581394281E-04      0.2299581917E-03
          0                15           1            79    1    39       0.4715778775E-04      77    1   39         0.2925655837E-04      0.1886083945E-03
          0                16           1            81    1    39       0.3182261218E-04      73    1   39         0.2343719844E-04      0.1671353494E-03
          0                17           1            79    1    39       0.2802131106E-04      77    1   39         0.1928148306E-04      0.1432850786E-03
          0                18           1            81    1    39       0.2222177585E-04      73    1   39         0.1542885847E-04      0.1267515857E-03
          0                19           1            78    1    40       0.1785111089E-04      44    1   32        -0.1385788632E-04      0.1118846201E-03

    ------------------------------------------------
       NWT REQUIRED           19 OUTER ITERATIONS 
       AND A TOTAL OF         84 INNER ITERATIONS.
    ------------------------------------------------

 OUTPUT CONTROL FOR STRESS PERIOD    2   TIME STEP    1
    PRINT BUDGET
    SAVE HEAD FOR ALL LAYERS
    SAVE DRAWDOWN FOR ALL LAYERS
    SAVE BUDGET
 UBDSV1 SAVING "         STORAGE" ON UNIT  40 AT TIME STEP  1, STRESS PERIOD   2
 UBDSV2 SAVING "   CONSTANT HEAD" ON UNIT  40 AT TIME STEP  1, STRESS PERIOD   2
 UBDSV1 SAVING "FLOW RIGHT FACE " ON UNIT  40 AT TIME STEP  1, STRESS PERIOD   2
 UBDSV1 SAVING "FLOW LOWER FACE " ON UNIT  40 AT TIME STEP  1, STRESS PERIOD   2
 UBDSV4 SAVING "           WELLS" ON UNIT  40 AT TIME STEP  1, STRESS PERIOD   2
 
 WELLS WITH REDUCED PUMPING FOR STRESS PERIOD     2 TIME STEP     1
   LAY   ROW   COL         APPL.Q          ACT.Q        GW-HEAD       CELL-BOT
    37     1    21  -0.100000E+03  -0.579168E+02   0.258295E+01   0.250000E+01
    37     1    60  -0.100000E+03  -0.115281E+02   0.351058E+01   0.350000E+01
 
 UBDSV4 SAVING "          DRAINS" ON UNIT  40 AT TIME STEP  1, STRESS PERIOD   2
 UBDSV4 SAVING " HEAD DEP BOUNDS" ON UNIT  40 AT TIME STEP  1, STRESS PERIOD   2

 SAVING SATURATED THICKNESS AND FLOW TERMS ON UNIT  333 FOR MT3DMS
 BY THE LINK-MT3DMS PACKAGE V7 AT TIME STEP    1, STRESS PERIOD    2


 HEAD WILL BE SAVED ON UNIT    2 AT END OF TIME STEP    1, STRESS PERIOD    2

 DRAWDOWN WILL BE SAVED ON UNIT   14 AT END OF TIME STEP    1, STRESS PERIOD    2
1
  VOLUMETRIC BUDGET FOR ENTIRE MODEL AT END OF TIME STEP    1, STRESS PERIOD   2
  ------------------------------------------------------------------------------

     CUMULATIVE VOLUMES      L**3       RATES FOR THIS TIME STEP      L**3/T
     ------------------                 ------------------------

           IN:                                      IN:
           ---                                      ---
             STORAGE     =         103.8325               STORAGE     =          37.2268
       CONSTANT HEAD     =           0.0000         CONSTANT HEAD     =           0.0000
               WELLS     =           0.0000                 WELLS     =           0.0000
              DRAINS     =           0.0000                DRAINS     =           0.0000
     HEAD DEP BOUNDS     =        1198.3754       HEAD DEP BOUNDS     =          33.0667

                TOTAL IN =        1302.2079                  TOTAL IN =          70.2935

          OUT:                                     OUT:
          ----                                     ----
             STORAGE     =       9.5502E-09               STORAGE     =           0.0000
       CONSTANT HEAD     =           0.0000         CONSTANT HEAD     =           0.0000
               WELLS     =        1282.3887                 WELLS     =          69.4450
              DRAINS     =          19.8238                DRAINS     =           0.8495
     HEAD DEP BOUNDS     =           0.0000       HEAD DEP BOUNDS     =           0.0000

               TOTAL OUT =        1302.2125                 TOTAL OUT =          70.2944

                IN - OUT =      -4.6387E-03                  IN - OUT =      -9.5367E-04

     PERCENT DISCREPANCY =          -0.00         PERCENT DISCREPANCY =          -0.00






         TIME SUMMARY AT END OF TIME STEP    1 IN STRESS PERIOD    2
                    SECONDS     MINUTES      HOURS       DAYS        YEARS
                    -----------------------------------------------------------
   TIME STEP LENGTH  86400.      1440.0      24.000      1.0000     2.73785E-03
 STRESS PERIOD TIME  86400.      1440.0      24.000      1.0000     2.73785E-03
         TOTAL TIME 9.50400E+05  15840.      264.00      11.000     3.01164E-02
1
 
 SOLVING FOR HEAD 
                                                   Max.-Head-Change                         Max.-Flux-Residual
  Residual-Control   Outer-Iter.   Inner-Iter.     Column Row Layer    Maximum-Head-Change  Column Row Layer    Maximum-Flux-Residual          L2-NORM 
          0                 1          21            25    1    11      -0.6643567907E+01      40    1   28        -0.1200036141E+00      0.1837828765E+01
          0                 2          13            23    1    23      -0.1888603423E+01      31    1   26         0.2932966222E+01      0.1510955721E+02
          0                 3           6            29    1    29      -0.2560673605E+00      24    1   28        -0.8685595495E+00      0.1691395155E+01
          0                 4           2            24    1    28       0.1557561759E-01      24    1   28         0.7375077845E-01      0.1340354179E+00
          0                 5           2            24    1     2       0.1590287739E-02      23    1   28        -0.4711868309E-02      0.8905479630E-02
          0                 6           1            49    1    33      -0.1283219306E-03      49    1   34         0.7293769868E-03      0.2412954897E-02
          0                 7           1            49    1    33      -0.2490214991E-03      48    1   34        -0.1589116979E-03      0.9739323424E-03
          0                 8           1            49    1    29      -0.1799367533E-03      49    1   34         0.2261125924E-03      0.9613955546E-03
          0                 9           1            39    1    39      -0.1344201933E-03      49    1   34         0.1623592426E-03      0.7914633597E-03
          0                10           1            43    1    39      -0.1074968305E-03      48    1   34        -0.1305407797E-03      0.6757755087E-03
                                                   Max.-Head-Change                         Max.-Flux-Residual
  Residual-Control   Outer-Iter.   Inner-Iter.     Column Row Layer    Maximum-Head-Change  Column Row Layer    Maximum-Flux-Residual          L2-NORM 
          0                11           1            39    1    39      -0.1176154553E-03      48    1   34        -0.9901907853E-04      0.5896084283E-03
          0                12           1            42    1    38      -0.7752551889E-04      48    1   34        -0.1063487334E-03      0.5435586141E-03
          0                13           1            39    1    39      -0.9637725701E-04      48    1   34        -0.7395570491E-04      0.4593273166E-03
          0                14           1            42    1    38      -0.5942877498E-04      48    1   34        -0.8431124584E-04      0.4331373945E-03
          0                15           1            39    1    39      -0.7629514411E-04      48    1   34        -0.5696861388E-04      0.3616904982E-03
          0                16           1            42    1    38      -0.4637344188E-04      48    1   34        -0.6581491890E-04      0.3427938467E-03
          0                17           1            39    1    39      -0.5999186647E-04      48    1   34        -0.4437497920E-04      0.2858976725E-03
          0                18           1            42    1    38      -0.3637889684E-04      48    1   34        -0.5134311853E-04      0.2711926153E-03
          0                19           1            39    1    39      -0.4724053927E-04      48    1   34        -0.3475526042E-04      0.2264184675E-03
          0                20           1            42    1    38      -0.2860454424E-04      48    1   34        -0.4018421387E-04      0.2148439010E-03
                                                   Max.-Head-Change                         Max.-Flux-Residual
  Residual-Control   Outer-Iter.   Inner-Iter.     Column Row Layer    Maximum-Head-Change  Column Row Layer    Maximum-Flux-Residual          L2-NORM 
          0                21           1            39    1    39      -0.3728927900E-04      48    1   34        -0.2732206451E-04      0.1795347352E-03
          0                22           1            42    1    38      -0.2252939646E-04      48    1   34        -0.3155156152E-04      0.1704335400E-03
          0                23           1            39    1    39      -0.2948990162E-04      48    1   34        -0.2154092086E-04      0.1424916060E-03
          0                24           1            42    1    38      -0.1777319442E-04      48    1   34        -0.2483473143E-04      0.1353418909E-03
          0                25           1            39    1    39      -0.2335188145E-04      48    1   34        -0.1702323991E-04      0.1131782459E-03
          0                26           1            36    1    40      -0.1407016519E-04      48    1   34        -0.1958342895E-04      0.1075547243E-03

    ------------------------------------------------
       NWT REQUIRED           26 OUTER ITERATIONS 
       AND A TOTAL OF         65 INNER ITERATIONS.
    ------------------------------------------------

 OUTPUT CONTROL FOR STRESS PERIOD    2   TIME STEP    2
    PRINT BUDGET
    SAVE HEAD FOR ALL LAYERS
    SAVE DRAWDOWN FOR ALL LAYERS
    SAVE BUDGET
 UBDSV1 SAVING "         STORAGE" ON UNIT  40 AT TIME STEP  2, STRESS PERIOD   2
 UBDSV2 SAVING "   CONSTANT HEAD" ON UNIT  40 AT TIME STEP  2, STRESS PERIOD   2
 UBDSV1 SAVING "FLOW RIGHT FACE " ON UNIT  40 AT TIME STEP  2, STRESS PERIOD   2
 UBDSV1 SAVING "FLOW LOWER FACE " ON UNIT  40 AT TIME STEP  2, STRESS PERIOD   2
 UBDSV4 SAVING "           WELLS" ON UNIT  40 AT TIME STEP  2, STRESS PERIOD   2
 
 WELLS WITH REDUCED PUMPING FOR STRESS PERIOD     2 TIME STEP     2
   LAY   ROW   COL         APPL.Q          ACT.Q        GW-HEAD       CELL-BOT
    37     1    21  -0.100000E+03  -0.490008E+02   0.257400E+01   0.250000E+01
    37     1    60  -0.100000E+03  -0.599223E+01   0.350745E+01   0.350000E+01
 
 UBDSV4 SAVING "          DRAINS" ON UNIT  40 AT TIME STEP  2, STRESS PERIOD   2
 UBDSV4 SAVING " HEAD DEP BOUNDS" ON UNIT  40 AT TIME STEP  2, STRESS PERIOD   2

 SAVING SATURATED THICKNESS AND FLOW TERMS ON UNIT  333 FOR MT3DMS
 BY THE LINK-MT3DMS PACKAGE V7 AT TIME STEP    2, STRESS PERIOD    2


 HEAD WILL BE SAVED ON UNIT    2 AT END OF TIME STEP    2, STRESS PERIOD    2

 DRAWDOWN WILL BE SAVED ON UNIT   14 AT END OF TIME STEP    2, STRESS PERIOD    2
1
  VOLUMETRIC BUDGET FOR ENTIRE MODEL AT END OF TIME STEP    2, STRESS PERIOD   2
  ------------------------------------------------------------------------------

     CUMULATIVE VOLUMES      L**3       RATES FOR THIS TIME STEP      L**3/T
     ------------------                 ------------------------

           IN:                                      IN:
           ---                                      ---
             STORAGE     =         116.2287               STORAGE     =          12.3962
       CONSTANT HEAD     =           0.0000         CONSTANT HEAD     =           0.0000
               WELLS     =           0.0000                 WELLS     =           0.0000
              DRAINS     =           0.0000                DRAINS     =           0.0000
     HEAD DEP BOUNDS     =        1241.7649       HEAD DEP BOUNDS     =          43.3896

                TOTAL IN =        1357.9937                  TOTAL IN =          55.7858

          OUT:                                     OUT:
          ----                                     ----
             STORAGE     =       9.5502E-09               STORAGE     =           0.0000
       CONSTANT HEAD     =           0.0000         CONSTANT HEAD     =           0.0000
               WELLS     =        1337.3817                 WELLS     =          54.9931
              DRAINS     =          20.6176                DRAINS     =           0.7938
     HEAD DEP BOUNDS     =           0.0000       HEAD DEP BOUNDS     =           0.0000

               TOTAL OUT =        1357.9994                 TOTAL OUT =          55.7869

                IN - OUT =      -5.7373E-03                  IN - OUT =      -1.1063E-03

     PERCENT DISCREPANCY =          -0.00         PERCENT DISCREPANCY =          -0.00






         TIME SUMMARY AT END OF TIME STEP    2 IN STRESS PERIOD    2
                    SECONDS     MINUTES      HOURS       DAYS        YEARS
                    -----------------------------------------------------------
   TIME STEP LENGTH  86400.      1440.0      24.000      1.0000     2.73785E-03
 STRESS PERIOD TIME 1.72800E+05  2880.0      48.000      2.0000     5.47570E-03
         TOTAL TIME 1.03680E+06  17280.      288.00      12.000     3.28542E-02
1
 
 SOLVING FOR HEAD 
                                                   Max.-Head-Change                         Max.-Flux-Residual
  Residual-Control   Outer-Iter.   Inner-Iter.     Column Row Layer    Maximum-Head-Change  Column Row Layer    Maximum-Flux-Residual          L2-NORM 
          0                 1          18            24    1    24      -0.1711966930E+01      24    1   28        -0.1200019469E+00      0.9785320370E+00
          0                 2          11            23    1    28      -0.6452669833E+00      23    1   28        -0.1531836475E+01      0.5703818158E+01
          0                 3           6            21    1    27       0.1418649072E+00      20    1   27        -0.1734284203E+01      0.2462239809E+01
          0                 4           5            20    1    25      -0.9763548345E-01      22    1   27         0.3202775437E+00      0.5268919241E+00
          0                 5           2            19    1    25      -0.1433506624E-01      20    1   25         0.3779812103E-01      0.6565838424E-01
          0                 6           2            19    1     1      -0.1701475056E-02      20    1   25         0.3037823662E-02      0.4819660465E-02
          0                 7           1            42    1    40       0.1056662761E-03      21    1   28        -0.2809858126E-03      0.9986088438E-03
          0                 8           1            42    1    40       0.2909822365E-03      40    1   36         0.1059577985E-03      0.6359053640E-03
          0                 9           1            43    1    39       0.6890720156E-04      19    1   29        -0.9069457765E-04      0.4917974074E-03
          0                10           1            44    1    40       0.2081146631E-03      44    1   36         0.6840533320E-04      0.4050858536E-03
                                                   Max.-Head-Change                         Max.-Flux-Residual
  Residual-Control   Outer-Iter.   Inner-Iter.     Column Row Layer    Maximum-Head-Change  Column Row Layer    Maximum-Flux-Residual          L2-NORM 
          0                11           1            42    1    40       0.4180731218E-04      57    1   36         0.5559664321E-04      0.3340288008E-03
          0                12           1            42    1    40       0.1656336711E-03      40    1   36         0.4299902642E-04      0.2643134810E-03
          0                13           1            25    1     3       0.2766112723E-04      57    1   36         0.4412603426E-04      0.2262582204E-03
          0                14           1            42    1    40       0.1096880011E-03      40    1   36         0.2614211256E-04      0.1630385384E-03
          0                15           1            39    1    39       0.1641009600E-04      28    1   33        -0.3564711720E-04      0.1479841124E-03

    ------------------------------------------------
       NWT REQUIRED           15 OUTER ITERATIONS 
       AND A TOTAL OF         53 INNER ITERATIONS.
    ------------------------------------------------

 OUTPUT CONTROL FOR STRESS PERIOD    2   TIME STEP    3
    PRINT BUDGET
    SAVE HEAD FOR ALL LAYERS
    SAVE DRAWDOWN FOR ALL LAYERS
    SAVE BUDGET
 UBDSV1 SAVING "         STORAGE" ON UNIT  40 AT TIME STEP  3, STRESS PERIOD   2
 UBDSV2 SAVING "   CONSTANT HEAD" ON UNIT  40 AT TIME STEP  3, STRESS PERIOD   2
 UBDSV1 SAVING "FLOW RIGHT FACE " ON UNIT  40 AT TIME STEP  3, STRESS PERIOD   2
 UBDSV1 SAVING "FLOW LOWER FACE " ON UNIT  40 AT TIME STEP  3, STRESS PERIOD   2
 UBDSV4 SAVING "           WELLS" ON UNIT  40 AT TIME STEP  3, STRESS PERIOD   2
 
 WELLS WITH REDUCED PUMPING FOR STRESS PERIOD     2 TIME STEP     3
   LAY   ROW   COL         APPL.Q          ACT.Q        GW-HEAD       CELL-BOT
    37     1    21  -0.100000E+03  -0.455966E+02   0.257059E+01   0.250000E+01
    37     1    60  -0.100000E+03  -0.349178E+01   0.350561E+01   0.350000E+01
 
 UBDSV4 SAVING "          DRAINS" ON UNIT  40 AT TIME STEP  3, STRESS PERIOD   2
 UBDSV4 SAVING " HEAD DEP BOUNDS" ON UNIT  40 AT TIME STEP  3, STRESS PERIOD   2

 SAVING SATURATED THICKNESS AND FLOW TERMS ON UNIT  333 FOR MT3DMS
 BY THE LINK-MT3DMS PACKAGE V7 AT TIME STEP    3, STRESS PERIOD    2


 HEAD WILL BE SAVED ON UNIT    2 AT END OF TIME STEP    3, STRESS PERIOD    2

 DRAWDOWN WILL BE SAVED ON UNIT   14 AT END OF TIME STEP    3, STRESS PERIOD    2
1
  VOLUMETRIC BUDGET FOR ENTIRE MODEL AT END OF TIME STEP    3, STRESS PERIOD   2
  ------------------------------------------------------------------------------

     CUMULATIVE VOLUMES      L**3       RATES FOR THIS TIME STEP      L**3/T
     ------------------                 ------------------------

           IN:                                      IN:
           ---                                      ---
             STORAGE     =         120.8596               STORAGE     =           4.6309
       CONSTANT HEAD     =           0.0000         CONSTANT HEAD     =           0.0000
               WELLS     =           0.0000                 WELLS     =           0.0000
              DRAINS     =           0.0000                DRAINS     =           0.0000
     HEAD DEP BOUNDS     =        1286.9583       HEAD DEP BOUNDS     =          45.1934

                TOTAL IN =        1407.8179                  TOTAL IN =          49.8243

          OUT:                                     OUT:
          ----                                     ----
             STORAGE     =       9.5502E-09               STORAGE     =           0.0000
       CONSTANT HEAD     =           0.0000         CONSTANT HEAD     =           0.0000
               WELLS     =        1386.4701                 WELLS     =          49.0884
              DRAINS     =          21.3524                DRAINS     =           0.7348
     HEAD DEP BOUNDS     =           0.0000       HEAD DEP BOUNDS     =           0.0000

               TOTAL OUT =        1407.8225                 TOTAL OUT =          49.8231

                IN - OUT =      -4.6387E-03                  IN - OUT =       1.1177E-03

     PERCENT DISCREPANCY =          -0.00         PERCENT DISCREPANCY =           0.00






         TIME SUMMARY AT END OF TIME STEP    3 IN STRESS PERIOD    2
                    SECONDS     MINUTES      HOURS       DAYS        YEARS
                    -----------------------------------------------------------
   TIME STEP LENGTH  86400.      1440.0      24.000      1.0000     2.73785E-03
 STRESS PERIOD TIME 2.59200E+05  4320.0      72.000      3.0000     8.21355E-03
         TOTAL TIME 1.12320E+06  18720.      312.00      13.000     3.55921E-02
1
 
 SOLVING FOR HEAD 
                                                   Max.-Head-Change                         Max.-Flux-Residual
  Residual-Control   Outer-Iter.   Inner-Iter.     Column Row Layer    Maximum-Head-Change  Column Row Layer    Maximum-Flux-Residual          L2-NORM 
          0                 1          11            37    1     9      -0.7303650598E+00      30    1   32        -0.1110901736E+00      0.4998070917E+00
          0                 2           6            24    1    30      -0.1192588498E+00      24    1   30        -0.7054831166E+00      0.1557746663E+01
          0                 3           2            25    1     3       0.8511874293E-02      25    1   30         0.1077218011E-01      0.2558336972E-01
          0                 4           1            25    1     3       0.4763175081E-03      46    1   34         0.5077698376E-03      0.2130946117E-02
          0                 5           1            42    1    38      -0.4548207008E-03      40    1   36        -0.2290188992E-03      0.1291704624E-02
          0                 6           1            46    1    32      -0.2054100222E-03      41    1   39        -0.2919227764E-03      0.1366186123E-02
          0                 7           1            42    1    38      -0.2666576133E-03      40    1   36        -0.1619012874E-03      0.9572940609E-03
          0                 8           1            46    1    32      -0.1445148032E-03      36    1   36        -0.1933015941E-03      0.9394484752E-03
          0                 9           1            42    1    38      -0.1903439925E-03      42    1   36        -0.1268656416E-03      0.7287845219E-03
          0                10           1            46    1    33      -0.1089526397E-03      36    1   36        -0.1390558294E-03      0.7020141539E-03
                                                   Max.-Head-Change                         Max.-Flux-Residual
  Residual-Control   Outer-Iter.   Inner-Iter.     Column Row Layer    Maximum-Head-Change  Column Row Layer    Maximum-Flux-Residual          L2-NORM 
          0                11           1            43    1    39      -0.1416760204E-03      42    1   36        -0.1008743314E-03      0.5617563212E-03
          0                12           1            46    1    33      -0.8426825680E-04      36    1   36        -0.1037077487E-03      0.5367853405E-03
          0                13           1            43    1    39      -0.1081994475E-03      42    1   36        -0.7949174544E-04      0.4349358652E-03
          0                14           1            46    1    33      -0.6528119313E-04      36    1   36        -0.7876258094E-04      0.4149735502E-03
          0                15           1            43    1    39      -0.8359634496E-04      42    1   36        -0.6228998332E-04      0.3375408102E-03
          0                16           1            40    1    40      -0.5061899458E-04      36    1   36        -0.6035172756E-04      0.3224758405E-03
          0                17           1            43    1    39      -0.6493886562E-04      42    1   36        -0.4866004847E-04      0.2623793860E-03
          0                18           1            40    1    40      -0.3930185910E-04      41    1   39        -0.4657779029E-04      0.2511860979E-03
          0                19           1            43    1    39      -0.5056635500E-04      42    1   36        -0.3795381911E-04      0.2041918404E-03
          0                20           1            40    1    40      -0.3055127546E-04      41    1   39        -0.3623499345E-04      0.1958517507E-03
                                                   Max.-Head-Change                         Max.-Flux-Residual
  Residual-Control   Outer-Iter.   Inner-Iter.     Column Row Layer    Maximum-Head-Change  Column Row Layer    Maximum-Flux-Residual          L2-NORM 
          0                21           1            43    1    39      -0.3941578873E-04      42    1   36        -0.2958240543E-04      0.1590373178E-03
          0                22           1            40    1    40      -0.2377283571E-04      41    1   39        -0.2820704371E-04      0.1527652238E-03
          0                23           1            43    1    39      -0.3073895675E-04      42    1   36        -0.2305115755E-04      0.1239348851E-03
          0                24           1            40    1    40      -0.1851179788E-04      41    1   39        -0.2196236108E-04      0.1191707705E-03

    ------------------------------------------------
       NWT REQUIRED           24 OUTER ITERATIONS 
       AND A TOTAL OF         40 INNER ITERATIONS.
    ------------------------------------------------

 OUTPUT CONTROL FOR STRESS PERIOD    2   TIME STEP    4
    PRINT BUDGET
    SAVE HEAD FOR ALL LAYERS
    SAVE DRAWDOWN FOR ALL LAYERS
    SAVE BUDGET
 UBDSV1 SAVING "         STORAGE" ON UNIT  40 AT TIME STEP  4, STRESS PERIOD   2
 UBDSV2 SAVING "   CONSTANT HEAD" ON UNIT  40 AT TIME STEP  4, STRESS PERIOD   2
 UBDSV1 SAVING "FLOW RIGHT FACE " ON UNIT  40 AT TIME STEP  4, STRESS PERIOD   2
 UBDSV1 SAVING "FLOW LOWER FACE " ON UNIT  40 AT TIME STEP  4, STRESS PERIOD   2
 UBDSV4 SAVING "           WELLS" ON UNIT  40 AT TIME STEP  4, STRESS PERIOD   2
 
 WELLS WITH REDUCED PUMPING FOR STRESS PERIOD     2 TIME STEP     4
   LAY   ROW   COL         APPL.Q          ACT.Q        GW-HEAD       CELL-BOT
    37     1    21  -0.100000E+03  -0.444602E+02   0.256945E+01   0.250000E+01
    37     1    60  -0.100000E+03  -0.240640E+01   0.350462E+01   0.350000E+01
 
 UBDSV4 SAVING "          DRAINS" ON UNIT  40 AT TIME STEP  4, STRESS PERIOD   2
 UBDSV4 SAVING " HEAD DEP BOUNDS" ON UNIT  40 AT TIME STEP  4, STRESS PERIOD   2

 SAVING SATURATED THICKNESS AND FLOW TERMS ON UNIT  333 FOR MT3DMS
 BY THE LINK-MT3DMS PACKAGE V7 AT TIME STEP    4, STRESS PERIOD    2


 HEAD WILL BE SAVED ON UNIT    2 AT END OF TIME STEP    4, STRESS PERIOD    2

 DRAWDOWN WILL BE SAVED ON UNIT   14 AT END OF TIME STEP    4, STRESS PERIOD    2
1
  VOLUMETRIC BUDGET FOR ENTIRE MODEL AT END OF TIME STEP    4, STRESS PERIOD   2
  ------------------------------------------------------------------------------

     CUMULATIVE VOLUMES      L**3       RATES FOR THIS TIME STEP      L**3/T
     ------------------                 ------------------------

           IN:                                      IN:
           ---                                      ---
             STORAGE     =         122.8267               STORAGE     =           1.9671
       CONSTANT HEAD     =           0.0000         CONSTANT HEAD     =           0.0000
               WELLS     =           0.0000                 WELLS     =           0.0000
              DRAINS     =           0.0000                DRAINS     =           0.0000
     HEAD DEP BOUNDS     =        1332.5406       HEAD DEP BOUNDS     =          45.5824

                TOTAL IN =        1455.3673                  TOTAL IN =          47.5495

          OUT:                                     OUT:
          ----                                     ----
             STORAGE     =       9.5564E-09               STORAGE     =       6.1667E-12
       CONSTANT HEAD     =           0.0000         CONSTANT HEAD     =           0.0000
               WELLS     =        1433.3367                 WELLS     =          46.8666
              DRAINS     =          22.0363                DRAINS     =           0.6839
     HEAD DEP BOUNDS     =           0.0000       HEAD DEP BOUNDS     =           0.0000

               TOTAL OUT =        1455.3730                 TOTAL OUT =          47.5505

                IN - OUT =      -5.7373E-03                  IN - OUT =      -1.0300E-03

     PERCENT DISCREPANCY =          -0.00         PERCENT DISCREPANCY =          -0.00






         TIME SUMMARY AT END OF TIME STEP    4 IN STRESS PERIOD    2
                    SECONDS     MINUTES      HOURS       DAYS        YEARS
                    -----------------------------------------------------------
   TIME STEP LENGTH  86400.      1440.0      24.000      1.0000     2.73785E-03
 STRESS PERIOD TIME 3.45600E+05  5760.0      96.000      4.0000     1.09514E-02
         TOTAL TIME 1.20960E+06  20160.      336.00      14.000     3.83299E-02
1
 
 SOLVING FOR HEAD 
                                                   Max.-Head-Change                         Max.-Flux-Residual
  Residual-Control   Outer-Iter.   Inner-Iter.     Column Row Layer    Maximum-Head-Change  Column Row Layer    Maximum-Flux-Residual          L2-NORM 
          0                 1          10            46    1    34      -0.3056717889E+00      37    1   33        -0.5216444422E-01      0.2445535304E+00
          0                 2           4            45    1    34      -0.1708424364E-01      46    1   34         0.7074681167E-01      0.2242452060E+00
          0                 3           1            46    1    13       0.4019927808E-03      46    1   34         0.2042165118E-02      0.4744922931E-02
          0                 4           1            47    1    14      -0.4852193821E-03      48    1   36        -0.3184926995E-03      0.1116291670E-02
          0                 5           1            48    1    35      -0.1629821497E-03      44    1   35        -0.4002824393E-03      0.1007721406E-02
          0                 6           1            47    1    14      -0.1955287050E-03      48    1   36        -0.1721453210E-03      0.7119022277E-03
          0                 7           1            48    1    35      -0.1219346145E-03      44    1   35        -0.1697032973E-03      0.6232301560E-03
          0                 8           1            47    1    15      -0.1190739510E-03      48    1   36        -0.1276641568E-03      0.5120694427E-03
          0                 9           1            47    1    35      -0.9866043375E-04      48    1   36        -0.1086245532E-03      0.4482608883E-03
          0                10           1            43    1    34      -0.7848622123E-04      48    1   36        -0.9409625601E-04      0.3853084456E-03
                                                   Max.-Head-Change                         Max.-Flux-Residual
  Residual-Control   Outer-Iter.   Inner-Iter.     Column Row Layer    Maximum-Head-Change  Column Row Layer    Maximum-Flux-Residual          L2-NORM 
          0                11           1            47    1    35      -0.7882339563E-04      48    1   36        -0.7868141898E-04      0.3340211092E-03
          0                12           1            43    1    34      -0.5669102806E-04      44    1   35        -0.7082974669E-04      0.2947152119E-03
          0                13           1            43    1    33      -0.6061433915E-04      48    1   36        -0.5808774090E-04      0.2537299377E-03
          0                14           1            43    1    12      -0.4282032764E-04      44    1   35        -0.5429797826E-04      0.2265972548E-03
          0                15           1            43    1    34      -0.4593157880E-04      48    1   36        -0.4342997941E-04      0.1948896993E-03
          0                16           1            43    1    12      -0.3302773479E-04      44    1   35        -0.4094548989E-04      0.1748750794E-03
          0                17           1            43    1    34      -0.3474815899E-04      48    1   36        -0.3280165578E-04      0.1507437865E-03
          0                18           1            43    1    12      -0.2568208839E-04      44    1   35        -0.3087847774E-04      0.1354547772E-03
          0                19           1            40    1    40      -0.2662499591E-04      48    1   36        -0.2496731665E-04      0.1170851558E-03
          0                20           1            43    1    12      -0.2002183370E-04      44    1   35        -0.2343866836E-04      0.1052431317E-03

    ------------------------------------------------
       NWT REQUIRED           20 OUTER ITERATIONS 
       AND A TOTAL OF         32 INNER ITERATIONS.
    ------------------------------------------------

 OUTPUT CONTROL FOR STRESS PERIOD    2   TIME STEP    5
    PRINT BUDGET
    SAVE HEAD FOR ALL LAYERS
    SAVE DRAWDOWN FOR ALL LAYERS
    SAVE BUDGET
 UBDSV1 SAVING "         STORAGE" ON UNIT  40 AT TIME STEP  5, STRESS PERIOD   2
 UBDSV2 SAVING "   CONSTANT HEAD" ON UNIT  40 AT TIME STEP  5, STRESS PERIOD   2
 UBDSV1 SAVING "FLOW RIGHT FACE " ON UNIT  40 AT TIME STEP  5, STRESS PERIOD   2
 UBDSV1 SAVING "FLOW LOWER FACE " ON UNIT  40 AT TIME STEP  5, STRESS PERIOD   2
 UBDSV4 SAVING "           WELLS" ON UNIT  40 AT TIME STEP  5, STRESS PERIOD   2
 
 WELLS WITH REDUCED PUMPING FOR STRESS PERIOD     2 TIME STEP     5
   LAY   ROW   COL         APPL.Q          ACT.Q        GW-HEAD       CELL-BOT
    37     1    21  -0.100000E+03  -0.440337E+02   0.256902E+01   0.250000E+01
    37     1    60  -0.100000E+03  -0.191093E+01   0.350410E+01   0.350000E+01
 
 UBDSV4 SAVING "          DRAINS" ON UNIT  40 AT TIME STEP  5, STRESS PERIOD   2
 UBDSV4 SAVING " HEAD DEP BOUNDS" ON UNIT  40 AT TIME STEP  5, STRESS PERIOD   2

 SAVING SATURATED THICKNESS AND FLOW TERMS ON UNIT  333 FOR MT3DMS
 BY THE LINK-MT3DMS PACKAGE V7 AT TIME STEP    5, STRESS PERIOD    2


 HEAD WILL BE SAVED ON UNIT    2 AT END OF TIME STEP    5, STRESS PERIOD    2

 DRAWDOWN WILL BE SAVED ON UNIT   14 AT END OF TIME STEP    5, STRESS PERIOD    2
1
  VOLUMETRIC BUDGET FOR ENTIRE MODEL AT END OF TIME STEP    5, STRESS PERIOD   2
  ------------------------------------------------------------------------------

     CUMULATIVE VOLUMES      L**3       RATES FOR THIS TIME STEP      L**3/T
     ------------------                 ------------------------

           IN:                                      IN:
           ---                                      ---
             STORAGE     =         123.7109               STORAGE     =           0.8842
       CONSTANT HEAD     =           0.0000         CONSTANT HEAD     =           0.0000
               WELLS     =           0.0000                 WELLS     =           0.0000
              DRAINS     =           0.0000                DRAINS     =           0.0000
     HEAD DEP BOUNDS     =        1378.2438       HEAD DEP BOUNDS     =          45.7031

                TOTAL IN =        1501.9546                  TOTAL IN =          46.5873

          OUT:                                     OUT:
          ----                                     ----
             STORAGE     =       9.7079E-09               STORAGE     =       1.5147E-10
       CONSTANT HEAD     =           0.0000         CONSTANT HEAD     =           0.0000
               WELLS     =        1479.2814                 WELLS     =          45.9446
              DRAINS     =          22.6799                DRAINS     =           0.6436
     HEAD DEP BOUNDS     =           0.0000       HEAD DEP BOUNDS     =           0.0000

               TOTAL OUT =        1501.9613                 TOTAL OUT =          46.5882

                IN - OUT =      -6.7139E-03                  IN - OUT =      -9.4604E-04

     PERCENT DISCREPANCY =          -0.00         PERCENT DISCREPANCY =          -0.00






         TIME SUMMARY AT END OF TIME STEP    5 IN STRESS PERIOD    2
                    SECONDS     MINUTES      HOURS       DAYS        YEARS
                    -----------------------------------------------------------
   TIME STEP LENGTH  86400.      1440.0      24.000      1.0000     2.73785E-03
 STRESS PERIOD TIME 4.32000E+05  7200.0      120.00      5.0000     1.36893E-02
         TOTAL TIME 1.29600E+06  21600.      360.00      15.000     4.10678E-02
1
 
 SOLVING FOR HEAD 
                                                   Max.-Head-Change                         Max.-Flux-Residual
  Residual-Control   Outer-Iter.   Inner-Iter.     Column Row Layer    Maximum-Head-Change  Column Row Layer    Maximum-Flux-Residual          L2-NORM 
          0                 1           9            43    1    12      -0.1460092969E+00      49    1   35        -0.2355368123E-01      0.1127153450E+00
          0                 2           2            28    1     7      -0.7153889708E-02      27    1   39        -0.2982969802E-01      0.9181350658E-01
          0                 3           1            27    1     4      -0.2584696441E-03      29    1   33         0.6839357016E-03      0.1991141038E-02
          0                 4           1            47    1    35      -0.2262503452E-03      46    1   38        -0.1614893324E-03      0.8003661796E-03
          0                 5           1            47    1    15      -0.2037514631E-03      42    1   36        -0.1244668459E-03      0.6530446515E-03
          0                 6           1            47    1    35      -0.9164759777E-04      42    1   36        -0.1183311334E-03      0.5801675566E-03
          0                 7           1            47    1    14      -0.1482586048E-03      42    1   36        -0.9071005077E-04      0.4622976847E-03
          0                 8           1            42    1    21      -0.7152712403E-04      42    1   36        -0.8901185295E-04      0.4372673349E-03
          0                 9           1            47    1    14      -0.9412831940E-04      42    1   36        -0.6825634091E-04      0.3469801396E-03
          0                10           1            42    1    21      -0.5493128689E-04      42    1   36        -0.6513779813E-04      0.3230491803E-03
                                                   Max.-Head-Change                         Max.-Flux-Residual
  Residual-Control   Outer-Iter.   Inner-Iter.     Column Row Layer    Maximum-Head-Change  Column Row Layer    Maximum-Flux-Residual          L2-NORM 
          0                11           1            47    1    14      -0.6634138070E-04      42    1   36        -0.5177007728E-04      0.2644240141E-03
          0                12           1            43    1    39      -0.4293317600E-04      42    1   36        -0.4897295839E-04      0.2445233213E-03
          0                13           1            40    1    40      -0.4847533150E-04      42    1   36        -0.3959283018E-04      0.2032146056E-03
          0                14           1            43    1    39      -0.3371427288E-04      42    1   36        -0.3724613660E-04      0.1866719843E-03
          0                15           1            40    1    40      -0.3636104536E-04      42    1   36        -0.3044988357E-04      0.1569739080E-03
          0                16           1            43    1    39      -0.2653893554E-04      42    1   36        -0.2855320953E-04      0.1433774248E-03
          0                17           1            40    1    40      -0.2754082774E-04      42    1   36        -0.2351363947E-04      0.1217091397E-03
          0                18           1            43    1    39      -0.2090672556E-04      42    1   36        -0.2201142607E-04      0.1106229077E-03

    ------------------------------------------------
       NWT REQUIRED           18 OUTER ITERATIONS 
       AND A TOTAL OF         27 INNER ITERATIONS.
    ------------------------------------------------

 OUTPUT CONTROL FOR STRESS PERIOD    2   TIME STEP    6
    PRINT BUDGET
    SAVE HEAD FOR ALL LAYERS
    SAVE DRAWDOWN FOR ALL LAYERS
    SAVE BUDGET
 UBDSV1 SAVING "         STORAGE" ON UNIT  40 AT TIME STEP  6, STRESS PERIOD   2
 UBDSV2 SAVING "   CONSTANT HEAD" ON UNIT  40 AT TIME STEP  6, STRESS PERIOD   2
 UBDSV1 SAVING "FLOW RIGHT FACE " ON UNIT  40 AT TIME STEP  6, STRESS PERIOD   2
 UBDSV1 SAVING "FLOW LOWER FACE " ON UNIT  40 AT TIME STEP  6, STRESS PERIOD   2
 UBDSV4 SAVING "           WELLS" ON UNIT  40 AT TIME STEP  6, STRESS PERIOD   2
 
 WELLS WITH REDUCED PUMPING FOR STRESS PERIOD     2 TIME STEP     6
   LAY   ROW   COL         APPL.Q          ACT.Q        GW-HEAD       CELL-BOT
    37     1    21  -0.100000E+03  -0.438721E+02   0.256886E+01   0.250000E+01
    37     1    60  -0.100000E+03  -0.168249E+01   0.350384E+01   0.350000E+01
 
 UBDSV4 SAVING "          DRAINS" ON UNIT  40 AT TIME STEP  6, STRESS PERIOD   2
 UBDSV4 SAVING " HEAD DEP BOUNDS" ON UNIT  40 AT TIME STEP  6, STRESS PERIOD   2

 SAVING SATURATED THICKNESS AND FLOW TERMS ON UNIT  333 FOR MT3DMS
 BY THE LINK-MT3DMS PACKAGE V7 AT TIME STEP    6, STRESS PERIOD    2


 HEAD WILL BE SAVED ON UNIT    2 AT END OF TIME STEP    6, STRESS PERIOD    2

 DRAWDOWN WILL BE SAVED ON UNIT   14 AT END OF TIME STEP    6, STRESS PERIOD    2
1
  VOLUMETRIC BUDGET FOR ENTIRE MODEL AT END OF TIME STEP    6, STRESS PERIOD   2
  ------------------------------------------------------------------------------

     CUMULATIVE VOLUMES      L**3       RATES FOR THIS TIME STEP      L**3/T
     ------------------                 ------------------------

           IN:                                      IN:
           ---                                      ---
             STORAGE     =         124.1307               STORAGE     =           0.4198
       CONSTANT HEAD     =           0.0000         CONSTANT HEAD     =           0.0000
               WELLS     =           0.0000                 WELLS     =           0.0000
              DRAINS     =           0.0000                DRAINS     =           0.0000
     HEAD DEP BOUNDS     =        1423.9906       HEAD DEP BOUNDS     =          45.7469

                TOTAL IN =        1548.1213                  TOTAL IN =          46.1667

          OUT:                                     OUT:
          ----                                     ----
             STORAGE     =       9.8209E-09               STORAGE     =       1.1305E-10
       CONSTANT HEAD     =           0.0000         CONSTANT HEAD     =           0.0000
               WELLS     =        1524.8359                 WELLS     =          45.5546
              DRAINS     =          23.2930                DRAINS     =           0.6131
     HEAD DEP BOUNDS     =           0.0000       HEAD DEP BOUNDS     =           0.0000

               TOTAL OUT =        1548.1290                 TOTAL OUT =          46.1677

                IN - OUT =      -7.6904E-03                  IN - OUT =      -9.7656E-04

     PERCENT DISCREPANCY =          -0.00         PERCENT DISCREPANCY =          -0.00






         TIME SUMMARY AT END OF TIME STEP    6 IN STRESS PERIOD    2
                    SECONDS     MINUTES      HOURS       DAYS        YEARS
                    -----------------------------------------------------------
   TIME STEP LENGTH  86400.      1440.0      24.000      1.0000     2.73785E-03
 STRESS PERIOD TIME 5.18400E+05  8640.0      144.00      6.0000     1.64271E-02
         TOTAL TIME 1.38240E+06  23040.      384.00      16.000     4.38056E-02
1
 
 SOLVING FOR HEAD 
                                                   Max.-Head-Change                         Max.-Flux-Residual
  Residual-Control   Outer-Iter.   Inner-Iter.     Column Row Layer    Maximum-Head-Change  Column Row Layer    Maximum-Flux-Residual          L2-NORM 
          0                 1           9            47    1    14      -0.6007733247E-01      47    1   35        -0.1127902024E-01      0.5183329655E-01
          0                 2           2            58    1    28      -0.6037105207E-02      46    1   36         0.1688193353E-01      0.4417764645E-01
          0                 3           1            52    1    40      -0.2127906543E-03      59    1   36         0.4740813509E-03      0.1262792766E-02
          0                 4           1            53    1    39      -0.1979939772E-03      54    1   38        -0.1693395979E-03      0.6090090415E-03
          0                 5           1            50    1    40      -0.1349707664E-03      46    1   38        -0.1167464288E-03      0.4693548199E-03
          0                 6           1            47    1    35      -0.7390886824E-04      46    1   38        -0.1225343125E-03      0.3969958503E-03
          0                 7           1            48    1    14      -0.9531694895E-04      46    1   38        -0.8215435326E-04      0.3218892778E-03
          0                 8           1            47    1    35      -0.5322260693E-04      46    1   38        -0.8672158081E-04      0.2978800939E-03
          0                 9           1            48    1    16      -0.5739789455E-04      46    1   38        -0.5644237470E-04      0.2349793238E-03
          0                10           1            47    1    35      -0.4260993394E-04      46    1   38        -0.5862880030E-04      0.2134721027E-03
                                                   Max.-Head-Change                         Max.-Flux-Residual
  Residual-Control   Outer-Iter.   Inner-Iter.     Column Row Layer    Maximum-Head-Change  Column Row Layer    Maximum-Flux-Residual          L2-NORM 
          0                11           1            47    1    35      -0.3707247537E-04      46    1   38        -0.4108980150E-04      0.1791862607E-03
          0                12           1            47    1    15      -0.3371470812E-04      46    1   38        -0.4140058702E-04      0.1574261991E-03
          0                13           1            47    1    35      -0.2599771475E-04      46    1   38        -0.3077656466E-04      0.1380341353E-03
          0                14           1            47    1    14      -0.2626421256E-04      46    1   38        -0.3026454003E-04      0.1188156605E-03
          0                15           1            43    1    39      -0.1922075554E-04      46    1   38        -0.2333443549E-04      0.1064354879E-03

    ------------------------------------------------
       NWT REQUIRED           15 OUTER ITERATIONS 
       AND A TOTAL OF         24 INNER ITERATIONS.
    ------------------------------------------------

 OUTPUT CONTROL FOR STRESS PERIOD    2   TIME STEP    7
    PRINT BUDGET
    SAVE HEAD FOR ALL LAYERS
    SAVE DRAWDOWN FOR ALL LAYERS
    SAVE BUDGET
 UBDSV1 SAVING "         STORAGE" ON UNIT  40 AT TIME STEP  7, STRESS PERIOD   2
 UBDSV2 SAVING "   CONSTANT HEAD" ON UNIT  40 AT TIME STEP  7, STRESS PERIOD   2
 UBDSV1 SAVING "FLOW RIGHT FACE " ON UNIT  40 AT TIME STEP  7, STRESS PERIOD   2
 UBDSV1 SAVING "FLOW LOWER FACE " ON UNIT  40 AT TIME STEP  7, STRESS PERIOD   2
 UBDSV4 SAVING "           WELLS" ON UNIT  40 AT TIME STEP  7, STRESS PERIOD   2
 
 WELLS WITH REDUCED PUMPING FOR STRESS PERIOD     2 TIME STEP     7
   LAY   ROW   COL         APPL.Q          ACT.Q        GW-HEAD       CELL-BOT
    37     1    21  -0.100000E+03  -0.438058E+02   0.256879E+01   0.250000E+01
    37     1    60  -0.100000E+03  -0.157549E+01   0.350372E+01   0.350000E+01
 
 UBDSV4 SAVING "          DRAINS" ON UNIT  40 AT TIME STEP  7, STRESS PERIOD   2
 UBDSV4 SAVING " HEAD DEP BOUNDS" ON UNIT  40 AT TIME STEP  7, STRESS PERIOD   2

 SAVING SATURATED THICKNESS AND FLOW TERMS ON UNIT  333 FOR MT3DMS
 BY THE LINK-MT3DMS PACKAGE V7 AT TIME STEP    7, STRESS PERIOD    2


 HEAD WILL BE SAVED ON UNIT    2 AT END OF TIME STEP    7, STRESS PERIOD    2

 DRAWDOWN WILL BE SAVED ON UNIT   14 AT END OF TIME STEP    7, STRESS PERIOD    2
1
  VOLUMETRIC BUDGET FOR ENTIRE MODEL AT END OF TIME STEP    7, STRESS PERIOD   2
  ------------------------------------------------------------------------------

     CUMULATIVE VOLUMES      L**3       RATES FOR THIS TIME STEP      L**3/T
     ------------------                 ------------------------

           IN:                                      IN:
           ---                                      ---
             STORAGE     =         124.3382               STORAGE     =           0.2075
       CONSTANT HEAD     =           0.0000         CONSTANT HEAD     =           0.0000
               WELLS     =           0.0000                 WELLS     =           0.0000
              DRAINS     =           0.0000                DRAINS     =           0.0000
     HEAD DEP BOUNDS     =        1469.7548       HEAD DEP BOUNDS     =          45.7642

                TOTAL IN =        1594.0930                  TOTAL IN =          45.9717

          OUT:                                     OUT:
          ----                                     ----
             STORAGE     =       1.0102E-08               STORAGE     =       2.8142E-10
       CONSTANT HEAD     =           0.0000         CONSTANT HEAD     =           0.0000
               WELLS     =        1570.2172                 WELLS     =          45.3813
              DRAINS     =          23.8844                DRAINS     =           0.5913
     HEAD DEP BOUNDS     =           0.0000       HEAD DEP BOUNDS     =           0.0000

               TOTAL OUT =        1594.1016                 TOTAL OUT =          45.9726

                IN - OUT =      -8.5449E-03                  IN - OUT =      -8.9264E-04

     PERCENT DISCREPANCY =          -0.00         PERCENT DISCREPANCY =          -0.00






         TIME SUMMARY AT END OF TIME STEP    7 IN STRESS PERIOD    2
                    SECONDS     MINUTES      HOURS       DAYS        YEARS
                    -----------------------------------------------------------
   TIME STEP LENGTH  86400.      1440.0      24.000      1.0000     2.73785E-03
 STRESS PERIOD TIME 6.04800E+05  10080.      168.00      7.0000     1.91650E-02
         TOTAL TIME 1.46880E+06  24480.      408.00      17.000     4.65435E-02
1
 
 SOLVING FOR HEAD 
                                                   Max.-Head-Change                         Max.-Flux-Residual
  Residual-Control   Outer-Iter.   Inner-Iter.     Column Row Layer    Maximum-Head-Change  Column Row Layer    Maximum-Flux-Residual          L2-NORM 
          0                 1           6            47    1    14      -0.2569662884E-01      47    1   35        -0.4935119664E-02      0.2443293204E-01
          0                 2           1            46    1    14      -0.9162018692E-03      46    1   35        -0.2705695593E-02      0.4213308813E-02
          0                 3           1            78    1    40       0.8385334429E-03      43    1   37        -0.3108296764E-03      0.1666386435E-02
          0                 4           1            46    1    34      -0.2169302795E-03      45    1   37        -0.3919285622E-03      0.1312329208E-02
          0                 5           1            41    1    34      -0.4269495248E-03      48    1   36        -0.1878119538E-03      0.1027979069E-02
          0                 6           1            45    1    35      -0.1436549513E-03      45    1   37        -0.2063776923E-03      0.8600640650E-03
          0                 7           1            41    1    34      -0.2554268364E-03      48    1   36        -0.1377884971E-03      0.7031305904E-03
          0                 8           1            45    1    35      -0.1069709862E-03      46    1   38        -0.1332962201E-03      0.6100544837E-03
          0                 9           1            41    1    34      -0.1595918884E-03      48    1   36        -0.1059161117E-03      0.5170179831E-03
          0                10           1            45    1    35      -0.8821939557E-04      46    1   38        -0.9567786083E-04      0.4542331584E-03
                                                   Max.-Head-Change                         Max.-Flux-Residual
  Residual-Control   Outer-Iter.   Inner-Iter.     Column Row Layer    Maximum-Head-Change  Column Row Layer    Maximum-Flux-Residual          L2-NORM 
          0                11           1            41    1    34      -0.1066605415E-03      48    1   36        -0.8332856905E-04      0.3936519858E-03
          0                12           1            45    1    35      -0.7412613767E-04      46    1   38        -0.7067125153E-04      0.3469745123E-03
          0                13           1            41    1    34      -0.7454000207E-04      48    1   36        -0.6625986077E-04      0.3050671059E-03
          0                14           1            45    1    35      -0.6255735080E-04      46    1   38        -0.5308443297E-04      0.2684539910E-03
          0                15           1            41    1    34      -0.5369993110E-04      48    1   36        -0.5279887629E-04      0.2381385335E-03
          0                16           1            45    1    35      -0.5249310053E-04      46    1   38        -0.4024185606E-04      0.2086966189E-03
          0                17           1            41    1    34      -0.3944352189E-04      48    1   36        -0.4195667168E-04      0.1861410936E-03
          0                18           1            45    1    35      -0.4358240975E-04      46    1   38        -0.3063263014E-04      0.1622681707E-03
          0                19           1            41    1    34      -0.2931801328E-04      48    1   36        -0.3316043729E-04      0.1452079727E-03
          0                20           1            45    1    35      -0.3573125801E-04      46    1   38        -0.2334226725E-04      0.1258725168E-03
                                                   Max.-Head-Change                         Max.-Flux-Residual
  Residual-Control   Outer-Iter.   Inner-Iter.     Column Row Layer    Maximum-Head-Change  Column Row Layer    Maximum-Flux-Residual          L2-NORM 
          0                21           1            41    1    34      -0.2194263286E-04      48    1   36        -0.2603518281E-04      0.1128561512E-03

    ------------------------------------------------
       NWT REQUIRED           21 OUTER ITERATIONS 
       AND A TOTAL OF         26 INNER ITERATIONS.
    ------------------------------------------------

 OUTPUT CONTROL FOR STRESS PERIOD    2   TIME STEP    8
    PRINT BUDGET
    SAVE HEAD FOR ALL LAYERS
    SAVE DRAWDOWN FOR ALL LAYERS
    SAVE BUDGET
 UBDSV1 SAVING "         STORAGE" ON UNIT  40 AT TIME STEP  8, STRESS PERIOD   2
 UBDSV2 SAVING "   CONSTANT HEAD" ON UNIT  40 AT TIME STEP  8, STRESS PERIOD   2
 UBDSV1 SAVING "FLOW RIGHT FACE " ON UNIT  40 AT TIME STEP  8, STRESS PERIOD   2
 UBDSV1 SAVING "FLOW LOWER FACE " ON UNIT  40 AT TIME STEP  8, STRESS PERIOD   2
 UBDSV4 SAVING "           WELLS" ON UNIT  40 AT TIME STEP  8, STRESS PERIOD   2
 
 WELLS WITH REDUCED PUMPING FOR STRESS PERIOD     2 TIME STEP     8
   LAY   ROW   COL         APPL.Q          ACT.Q        GW-HEAD       CELL-BOT
    37     1    21  -0.100000E+03  -0.437783E+02   0.256876E+01   0.250000E+01
    37     1    60  -0.100000E+03  -0.152369E+01   0.350365E+01   0.350000E+01
 
 UBDSV4 SAVING "          DRAINS" ON UNIT  40 AT TIME STEP  8, STRESS PERIOD   2
 UBDSV4 SAVING " HEAD DEP BOUNDS" ON UNIT  40 AT TIME STEP  8, STRESS PERIOD   2

 SAVING SATURATED THICKNESS AND FLOW TERMS ON UNIT  333 FOR MT3DMS
 BY THE LINK-MT3DMS PACKAGE V7 AT TIME STEP    8, STRESS PERIOD    2


 HEAD WILL BE SAVED ON UNIT    2 AT END OF TIME STEP    8, STRESS PERIOD    2

 DRAWDOWN WILL BE SAVED ON UNIT   14 AT END OF TIME STEP    8, STRESS PERIOD    2
1
  VOLUMETRIC BUDGET FOR ENTIRE MODEL AT END OF TIME STEP    8, STRESS PERIOD   2
  ------------------------------------------------------------------------------

     CUMULATIVE VOLUMES      L**3       RATES FOR THIS TIME STEP      L**3/T
     ------------------                 ------------------------

           IN:                                      IN:
           ---                                      ---
             STORAGE     =         124.4443               STORAGE     =           0.1060
       CONSTANT HEAD     =           0.0000         CONSTANT HEAD     =           0.0000
               WELLS     =           0.0000                 WELLS     =           0.0000
              DRAINS     =           0.0000                DRAINS     =           0.0000
     HEAD DEP BOUNDS     =        1515.5259       HEAD DEP BOUNDS     =          45.7712

                TOTAL IN =        1639.9701                  TOTAL IN =          45.8772

          OUT:                                     OUT:
          ----                                     ----
             STORAGE     =       1.0493E-08               STORAGE     =       3.9058E-10
       CONSTANT HEAD     =           0.0000         CONSTANT HEAD     =           0.0000
               WELLS     =        1615.5192                 WELLS     =          45.3020
              DRAINS     =          24.4606                DRAINS     =           0.5762
     HEAD DEP BOUNDS     =           0.0000       HEAD DEP BOUNDS     =           0.0000

               TOTAL OUT =        1639.9797                 TOTAL OUT =          45.8782

                IN - OUT =      -9.6436E-03                  IN - OUT =      -1.0300E-03

     PERCENT DISCREPANCY =          -0.00         PERCENT DISCREPANCY =          -0.00






         TIME SUMMARY AT END OF TIME STEP    8 IN STRESS PERIOD    2
                    SECONDS     MINUTES      HOURS       DAYS        YEARS
                    -----------------------------------------------------------
   TIME STEP LENGTH  86400.      1440.0      24.000      1.0000     2.73785E-03
 STRESS PERIOD TIME 6.91200E+05  11520.      192.00      8.0000     2.19028E-02
         TOTAL TIME 1.55520E+06  25920.      432.00      18.000     4.92813E-02
1
 
 SOLVING FOR HEAD 
                                                   Max.-Head-Change                         Max.-Flux-Residual
  Residual-Control   Outer-Iter.   Inner-Iter.     Column Row Layer    Maximum-Head-Change  Column Row Layer    Maximum-Flux-Residual          L2-NORM 
          0                 1           6            90    1    38      -0.1428287711E-01      47    1   35        -0.2189430349E-02      0.1240165797E-01
          0                 2           1            46    1    14      -0.2116878720E-03      89    1   39         0.7666045218E-03      0.1432077480E-02
          0                 3           1            41    1    34      -0.3599820614E-03      43    1   37        -0.1421652668E-03      0.9212838431E-03
          0                 4           1            46    1    14      -0.1390595317E-03      89    1   39         0.2051641264E-03      0.7580029652E-03
          0                 5           1            41    1    34      -0.2241636474E-03      43    1   37        -0.1119493646E-03      0.6254244752E-03
          0                 6           1            46    1    14      -0.9538512586E-04      47    1   37        -0.1020624828E-03      0.5328712277E-03
          0                 7           1            41    1    34      -0.1631728574E-03      43    1   37        -0.8625591045E-04      0.4551172978E-03
          0                 8           1            46    1    14      -0.6785129525E-04      39    1   37        -0.7652940568E-04      0.3906177220E-03
          0                 9           1            41    1    34      -0.1277662836E-03      43    1   37        -0.6508600580E-04      0.3370597211E-03
          0                10           1            46    1    14      -0.4866709483E-04      39    1   37        -0.5905780713E-04      0.2889608784E-03
                                                   Max.-Head-Change                         Max.-Flux-Residual
  Residual-Control   Outer-Iter.   Inner-Iter.     Column Row Layer    Maximum-Head-Change  Column Row Layer    Maximum-Flux-Residual          L2-NORM 
          0                11           1            41    1    34      -0.1022366612E-03      43    1   37        -0.4831275949E-04      0.2493048307E-03
          0                12           1            45    1    35      -0.3471688640E-04      39    1   37        -0.4502476701E-04      0.2126414262E-03
          0                13           1            41    1    34      -0.8145262070E-04      43    1   37        -0.3526213476E-04      0.1824685959E-03
          0                14           1            46    1    35      -0.2448527173E-04      39    1   37        -0.3375500331E-04      0.1544517584E-03
          0                15           1            41    1    34      -0.6378771581E-04      43    1   37        -0.2525786332E-04      0.1314117762E-03
          0                16           1            46    1    35      -0.1697207255E-04      39    1   37        -0.2478248628E-04      0.1101911521E-03

    ------------------------------------------------
       NWT REQUIRED           16 OUTER ITERATIONS 
       AND A TOTAL OF         21 INNER ITERATIONS.
    ------------------------------------------------

 OUTPUT CONTROL FOR STRESS PERIOD    2   TIME STEP    9
    PRINT BUDGET
    SAVE HEAD FOR ALL LAYERS
    SAVE DRAWDOWN FOR ALL LAYERS
    SAVE BUDGET
 UBDSV1 SAVING "         STORAGE" ON UNIT  40 AT TIME STEP  9, STRESS PERIOD   2
 UBDSV2 SAVING "   CONSTANT HEAD" ON UNIT  40 AT TIME STEP  9, STRESS PERIOD   2
 UBDSV1 SAVING "FLOW RIGHT FACE " ON UNIT  40 AT TIME STEP  9, STRESS PERIOD   2
 UBDSV1 SAVING "FLOW LOWER FACE " ON UNIT  40 AT TIME STEP  9, STRESS PERIOD   2
 UBDSV4 SAVING "           WELLS" ON UNIT  40 AT TIME STEP  9, STRESS PERIOD   2
 
 WELLS WITH REDUCED PUMPING FOR STRESS PERIOD     2 TIME STEP     9
   LAY   ROW   COL         APPL.Q          ACT.Q        GW-HEAD       CELL-BOT
    37     1    21  -0.100000E+03  -0.437664E+02   0.256875E+01   0.250000E+01
    37     1    60  -0.100000E+03  -0.149868E+01   0.350362E+01   0.350000E+01
 
 UBDSV4 SAVING "          DRAINS" ON UNIT  40 AT TIME STEP  9, STRESS PERIOD   2
 UBDSV4 SAVING " HEAD DEP BOUNDS" ON UNIT  40 AT TIME STEP  9, STRESS PERIOD   2

 SAVING SATURATED THICKNESS AND FLOW TERMS ON UNIT  333 FOR MT3DMS
 BY THE LINK-MT3DMS PACKAGE V7 AT TIME STEP    9, STRESS PERIOD    2


 HEAD WILL BE SAVED ON UNIT    2 AT END OF TIME STEP    9, STRESS PERIOD    2

 DRAWDOWN WILL BE SAVED ON UNIT   14 AT END OF TIME STEP    9, STRESS PERIOD    2
1
  VOLUMETRIC BUDGET FOR ENTIRE MODEL AT END OF TIME STEP    9, STRESS PERIOD   2
  ------------------------------------------------------------------------------

     CUMULATIVE VOLUMES      L**3       RATES FOR THIS TIME STEP      L**3/T
     ------------------                 ------------------------

           IN:                                      IN:
           ---                                      ---
             STORAGE     =         124.5003               STORAGE     =       5.5999E-02
       CONSTANT HEAD     =           0.0000         CONSTANT HEAD     =           0.0000
               WELLS     =           0.0000                 WELLS     =           0.0000
              DRAINS     =           0.0000                DRAINS     =           0.0000
     HEAD DEP BOUNDS     =        1561.3000       HEAD DEP BOUNDS     =          45.7742

                TOTAL IN =        1685.8003                  TOTAL IN =          45.8302

          OUT:                                     OUT:
          ----                                     ----
             STORAGE     =       1.0874E-08               STORAGE     =       3.8058E-10
       CONSTANT HEAD     =           0.0000         CONSTANT HEAD     =           0.0000
               WELLS     =        1660.7843                 WELLS     =          45.2651
              DRAINS     =          25.0267                DRAINS     =           0.5661
     HEAD DEP BOUNDS     =           0.0000       HEAD DEP BOUNDS     =           0.0000

               TOTAL OUT =        1685.8110                 TOTAL OUT =          45.8312

                IN - OUT =      -1.0742E-02                  IN - OUT =      -1.0071E-03

     PERCENT DISCREPANCY =          -0.00         PERCENT DISCREPANCY =          -0.00






         TIME SUMMARY AT END OF TIME STEP    9 IN STRESS PERIOD    2
                    SECONDS     MINUTES      HOURS       DAYS        YEARS
                    -----------------------------------------------------------
   TIME STEP LENGTH  86400.      1440.0      24.000      1.0000     2.73785E-03
 STRESS PERIOD TIME 7.77600E+05  12960.      216.00      9.0000     2.46407E-02
         TOTAL TIME 1.64160E+06  27360.      456.00      19.000     5.20192E-02
1
 
 SOLVING FOR HEAD 
                                                   Max.-Head-Change                         Max.-Flux-Residual
  Residual-Control   Outer-Iter.   Inner-Iter.     Column Row Layer    Maximum-Head-Change  Column Row Layer    Maximum-Flux-Residual          L2-NORM 
          0                 1           5            90    1    38      -0.8801070094E-02      89    1   38        -0.1075467605E-02      0.6659661611E-02
          0                 2           1            78    1    40       0.1220511789E-03      89    1   38        -0.2470809743E-03      0.7305872680E-03
          0                 3           1            41    1    11      -0.2225897245E-03      36    1   36        -0.8455725688E-04      0.5490991778E-03
          0                 4           1            46    1    14      -0.7327748343E-04      90    1   38         0.8876052389E-04      0.4387395506E-03
          0                 5           1            41    1    11      -0.2092461312E-03      36    1   36        -0.5852047008E-04      0.3726292064E-03
          0                 6           1            41    1    33      -0.4017174475E-04      39    1   37        -0.4748023275E-04      0.2972918160E-03
          0                 7           1            41    1    34      -0.1593992643E-03      39    1   37        -0.3937327466E-04      0.2398660354E-03
          0                 8           1            44    1    40      -0.2478945838E-04      43    1   37        -0.3284369950E-04      0.1903856557E-03
          0                 9           1            41    1    12      -0.8073623824E-04      39    1   37        -0.2487973500E-04      0.1479495221E-03
          0                10           1            41    1    34      -0.1750344440E-04      43    1   37        -0.2284138100E-04      0.1231658560E-03

    ------------------------------------------------
       NWT REQUIRED           10 OUTER ITERATIONS 
       AND A TOTAL OF         14 INNER ITERATIONS.
    ------------------------------------------------

 OUTPUT CONTROL FOR STRESS PERIOD    2   TIME STEP   10
    PRINT BUDGET
    SAVE HEAD FOR ALL LAYERS
    SAVE DRAWDOWN FOR ALL LAYERS
    SAVE BUDGET
 UBDSV1 SAVING "         STORAGE" ON UNIT  40 AT TIME STEP 10, STRESS PERIOD   2
 UBDSV2 SAVING "   CONSTANT HEAD" ON UNIT  40 AT TIME STEP 10, STRESS PERIOD   2
 UBDSV1 SAVING "FLOW RIGHT FACE " ON UNIT  40 AT TIME STEP 10, STRESS PERIOD   2
 UBDSV1 SAVING "FLOW LOWER FACE " ON UNIT  40 AT TIME STEP 10, STRESS PERIOD   2
 UBDSV4 SAVING "           WELLS" ON UNIT  40 AT TIME STEP 10, STRESS PERIOD   2
 
 WELLS WITH REDUCED PUMPING FOR STRESS PERIOD     2 TIME STEP    10
   LAY   ROW   COL         APPL.Q          ACT.Q        GW-HEAD       CELL-BOT
    37     1    21  -0.100000E+03  -0.437612E+02   0.256875E+01   0.250000E+01
    37     1    60  -0.100000E+03  -0.148642E+01   0.350361E+01   0.350000E+01
 
 UBDSV4 SAVING "          DRAINS" ON UNIT  40 AT TIME STEP 10, STRESS PERIOD   2
 UBDSV4 SAVING " HEAD DEP BOUNDS" ON UNIT  40 AT TIME STEP 10, STRESS PERIOD   2

 SAVING SATURATED THICKNESS AND FLOW TERMS ON UNIT  333 FOR MT3DMS
 BY THE LINK-MT3DMS PACKAGE V7 AT TIME STEP   10, STRESS PERIOD    2


 HEAD WILL BE SAVED ON UNIT    2 AT END OF TIME STEP   10, STRESS PERIOD    2

 DRAWDOWN WILL BE SAVED ON UNIT   14 AT END OF TIME STEP   10, STRESS PERIOD    2
1
  VOLUMETRIC BUDGET FOR ENTIRE MODEL AT END OF TIME STEP   10, STRESS PERIOD   2
  ------------------------------------------------------------------------------

     CUMULATIVE VOLUMES      L**3       RATES FOR THIS TIME STEP      L**3/T
     ------------------                 ------------------------

           IN:                                      IN:
           ---                                      ---
             STORAGE     =         124.5310               STORAGE     =       3.0685E-02
       CONSTANT HEAD     =           0.0000         CONSTANT HEAD     =           0.0000
               WELLS     =           0.0000                 WELLS     =           0.0000
              DRAINS     =           0.0000                DRAINS     =           0.0000
     HEAD DEP BOUNDS     =        1607.0756       HEAD DEP BOUNDS     =          45.7755

                TOTAL IN =        1731.6066                  TOTAL IN =          45.8062

          OUT:                                     OUT:
          ----                                     ----
             STORAGE     =       1.1250E-08               STORAGE     =       3.7627E-10
       CONSTANT HEAD     =           0.0000         CONSTANT HEAD     =           0.0000
               WELLS     =        1706.0320                 WELLS     =          45.2477
              DRAINS     =          25.5863                DRAINS     =           0.5596
     HEAD DEP BOUNDS     =           0.0000       HEAD DEP BOUNDS     =           0.0000

               TOTAL OUT =        1731.6183                 TOTAL OUT =          45.8073

                IN - OUT =      -1.1719E-02                  IN - OUT =      -1.0796E-03

     PERCENT DISCREPANCY =          -0.00         PERCENT DISCREPANCY =          -0.00






         TIME SUMMARY AT END OF TIME STEP   10 IN STRESS PERIOD    2
                    SECONDS     MINUTES      HOURS       DAYS        YEARS
                    -----------------------------------------------------------
   TIME STEP LENGTH  86400.      1440.0      24.000      1.0000     2.73785E-03
 STRESS PERIOD TIME 8.64000E+05  14400.      240.00      10.000     2.73785E-02
         TOTAL TIME 1.72800E+06  28800.      480.00      20.000     5.47570E-02
1
1
                            STRESS PERIOD NO.    3, LENGTH =   10.00000    
                            -----------------------------------------------

                              NUMBER OF TIME STEPS =    10

                               MULTIPLIER FOR DELT =     1.000

                            INITIAL TIME STEP SIZE =   1.000000    

 WELL NO.  LAYER   ROW   COL   STRESS RATE         IFACE           QFACT           CELLGRP         
 --------------------------------------------------------------------------------------------------
      1     37      1     21      -100.0           0.000           0.000          -1.000    
      2     37      1     60      -100.0           0.000           0.000          -1.000    

      2 WELLS

 REUSING NON-PARAMETER DRAINS FROM LAST STRESS PERIOD

     75 DRAINS

 BOUND. NO. LAYER   ROW   COL     STAGE      CONDUCTANCE         IFACE           CONDFACT        CELLGRP         
 ----------------------------------------------------------------------------------------------------------------
      1      3      1     13       38.00          0.1000E+05       6.000           0.000          -1.000    
      2      4      1     13       38.00          0.1000E+05       6.000           0.000          -1.000    
      3      5      1     12       38.00          0.1000E+05       6.000           0.000          -1.000    
      4      6      1     12       38.00          0.1000E+05       6.000           0.000          -1.000    
      5      7      1     12       38.00          0.1000E+05       6.000           0.000          -1.000    
      6      8      1     11       38.00          0.1000E+05       6.000           0.000          -1.000    
      7      9      1     11       38.00          0.1000E+05       6.000           0.000          -1.000    
      8     10      1     11       38.00          0.1000E+05       6.000           0.000          -1.000    
      9     11      1     10       38.00          0.1000E+05       6.000           0.000          -1.000    
     10     12      1     10       38.00          0.1000E+05       6.000           0.000          -1.000    
     11     13      1     10       38.00          0.1000E+05       6.000           0.000          -1.000    
     12     14      1      9       38.00          0.1000E+05       6.000           0.000          -1.000    
     13     15      1      9       38.00          0.1000E+05       6.000           0.000          -1.000    
     14     16      1      9       38.00          0.1000E+05       6.000           0.000          -1.000    
     15     17      1      8       38.00          0.1000E+05       6.000           0.000          -1.000    
     16     18      1      8       38.00          0.1000E+05       6.000           0.000          -1.000    
     17     19      1      8       38.00          0.1000E+05       6.000           0.000          -1.000    
     18     20      1      7       38.00          0.1000E+05       6.000           0.000          -1.000    
     19     21      1      7       38.00          0.1000E+05       6.000           0.000          -1.000    
     20     22      1      7       38.00          0.1000E+05       6.000           0.000          -1.000    
     21     23      1      6       38.00          0.1000E+05       6.000           0.000          -1.000    
     22     24      1      6       38.00          0.1000E+05       6.000           0.000          -1.000    
     23     25      1      6       38.00          0.1000E+05       6.000           0.000          -1.000    
     24     26      1      5       38.00          0.1000E+05       6.000           0.000          -1.000    
     25     27      1      5       38.00          0.1000E+05       6.000           0.000          -1.000    
     26     28      1      5       38.00          0.1000E+05       6.000           0.000          -1.000    
     27     29      1      4       38.00          0.1000E+05       6.000           0.000          -1.000    
     28     30      1      4       38.00          0.1000E+05       6.000           0.000          -1.000    
     29     31      1      4       38.00          0.1000E+05       6.000           0.000          -1.000    
     30     32      1      3       38.00          0.1000E+05       6.000           0.000          -1.000    
     31     33      1      3       38.00          0.1000E+05       6.000           0.000          -1.000    
     32     34      1      3       38.00          0.1000E+05       6.000           0.000          -1.000    
     33     35      1      2       38.00          0.1000E+05       6.000           0.000          -1.000    
     34     36      1      2       38.00          0.1000E+05       6.000           0.000          -1.000    
     35     37      1      2       38.00          0.1000E+05       6.000           0.000          -1.000    
     36     38      1      1       38.00          0.1000E+05       6.000           0.000          -1.000    
     37     39      1      1       38.00          0.1000E+05       6.000           0.000          -1.000    
     38     40      1      1       38.00          0.1000E+05       6.000           0.000          -1.000    

     38 GHB CELLS
 
 SOLVING FOR HEAD 
                                                   Max.-Head-Change                         Max.-Flux-Residual
  Residual-Control   Outer-Iter.   Inner-Iter.     Column Row Layer    Maximum-Head-Change  Column Row Layer    Maximum-Flux-Residual          L2-NORM 
          0                 1          25            15    1     1       0.1995449325E+02      13    1    4         0.1909137152E+06      0.1022640641E+07
          0                 2          24            19    1     8       0.1779251033E+02      24    1   30        -0.1380490891E+03      0.7453023039E+03
          0                 3          21            20    1     4       0.1136057069E+02      19    1    1        -0.1352402234E+03      0.4941395033E+03
          0                 4          21            28    1     4       0.4588814851E+01      21    1    8         0.4122627582E+02      0.1260865231E+03
          0                 5          11            22    1     9       0.1710738369E+01      28    1   18        -0.2786166008E+02      0.5841488761E+02
          0                 6          16            24    1    11       0.1456144902E+01      23    1   10         0.5698871787E+01      0.1567669435E+02
          0                 7          11            25    1    12       0.7394197945E+00      25    1   12         0.4208196148E+01      0.7934419927E+01
          0                 8           6            26    1    13       0.1912382538E+00      25    1   13        -0.2759302505E+01      0.4093761474E+01
          0                 9           5            28    1    15       0.7389666383E-01      25    1   13        -0.5165992322E+00      0.9140300901E+00
          0                10           2            28    1     4       0.1422184269E-01      26    1   13         0.6996708704E-01      0.1256358553E+00
                                                   Max.-Head-Change                         Max.-Flux-Residual
  Residual-Control   Outer-Iter.   Inner-Iter.     Column Row Layer    Maximum-Head-Change  Column Row Layer    Maximum-Flux-Residual          L2-NORM 
          0                11           2            28    1     4       0.1663372131E-02      26    1   13         0.7613809737E-02      0.1433407406E-01
          0                12           1            28    1     4       0.2342873788E-03      26    1   13         0.7846336769E-03      0.2465474625E-02
          0                13           1            47    1    30       0.2801815101E-03      33    1   29         0.1265018354E-03      0.1209262293E-02
          0                14           1            47    1    30       0.3169595570E-03      53    1   34         0.1433758616E-03      0.1138272784E-02
          0                15           1            47    1    29       0.2542563945E-03      53    1   34         0.1647756780E-03      0.1068204695E-02
          0                16           1            47    1    15       0.2485489547E-03      53    1   34         0.1367057495E-03      0.9368482555E-03
          0                17           1            47    1    29       0.2028496962E-03      53    1   34         0.1316912496E-03      0.8582096534E-03
          0                18           1            47    1    15       0.1884016222E-03      53    1   34         0.1100378418E-03      0.7597611129E-03
          0                19           1            47    1    30       0.1603954246E-03      53    1   34         0.1000050267E-03      0.6908684239E-03
          0                20           1            47    1    15       0.1422824796E-03      53    1   34         0.8711875842E-04      0.6204208100E-03
                                                   Max.-Head-Change                         Max.-Flux-Residual
  Residual-Control   Outer-Iter.   Inner-Iter.     Column Row Layer    Maximum-Head-Change  Column Row Layer    Maximum-Flux-Residual          L2-NORM 
          0                21           1            47    1    30       0.1276584460E-03      53    1   34         0.7496308185E-04      0.5601812423E-03
          0                22           1            47    1    15       0.1100287361E-03      53    1   34         0.6929586063E-04      0.5113218795E-03
          0                23           1            47    1    30       0.1028743267E-03      53    1   34         0.5720331767E-04      0.4597285677E-03
          0                24           1            47    1    29       0.8835733197E-04      53    1   34         0.5588018976E-04      0.4249807451E-03
          0                25           1            47    1    30       0.8360531038E-04      53    1   34         0.4518903787E-04      0.3818336239E-03
          0                26           1            47    1    29       0.7282846186E-04      53    1   34         0.4554954269E-04      0.3551098613E-03
          0                27           1            47    1    30       0.6817800380E-04      53    1   34         0.3661228820E-04      0.3195896823E-03
          0                28           1            47    1    29       0.6082526630E-04      53    1   34         0.3732138844E-04      0.2976628726E-03
          0                29           1            47    1    30       0.5580009920E-04      53    1   34         0.3007209113E-04      0.2687260090E-03
          0                30           1            47    1    29       0.5116435240E-04      53    1   34         0.3070423745E-04      0.2501644322E-03
                                                   Max.-Head-Change                         Max.-Flux-Residual
  Residual-Control   Outer-Iter.   Inner-Iter.     Column Row Layer    Maximum-Head-Change  Column Row Layer    Maximum-Flux-Residual          L2-NORM 
          0                31           1            47    1    30       0.4592593263E-04      53    1   34         0.2491370778E-04      0.2266797294E-03
          0                32           1            47    1    29       0.4323263063E-04      53    1   34         0.2538418094E-04      0.2107783437E-03
          0                33           1            47    1    30       0.3804821770E-04      45    1   33         0.2100465288E-04      0.1916690768E-03
          0                34           1            47    1    29       0.3663854450E-04      53    1   34         0.2109690173E-04      0.1779947972E-03
          0                35           1            47    1    30       0.3171646778E-04      45    1   33         0.1797802005E-04      0.1623453749E-03
          0                36           1            47    1    29       0.3110714731E-04      53    1   34         0.1761785102E-04      0.1505815223E-03
          0                37           1            47    1    30       0.2657134318E-04      45    1   33         0.1534536663E-04      0.1376686728E-03
          0                38           1            47    1    29       0.2643884481E-04      53    1   34         0.1476925677E-04      0.1275592744E-03
          0                39           1            47    1    14       0.2234534983E-04      45    1   33         0.1307229751E-04      0.1168308345E-03
          0                40           1            47    1    29       0.2248402233E-04      53    1   34         0.1241703135E-04      0.1081574478E-03

    ------------------------------------------------
       NWT REQUIRED           40 OUTER ITERATIONS 
       AND A TOTAL OF        173 INNER ITERATIONS.
    ------------------------------------------------

 OUTPUT CONTROL FOR STRESS PERIOD    3   TIME STEP    1
    PRINT BUDGET
    SAVE HEAD FOR ALL LAYERS
    SAVE DRAWDOWN FOR ALL LAYERS
    SAVE BUDGET
 UBDSV1 SAVING "         STORAGE" ON UNIT  40 AT TIME STEP  1, STRESS PERIOD   3
 UBDSV2 SAVING "   CONSTANT HEAD" ON UNIT  40 AT TIME STEP  1, STRESS PERIOD   3
 UBDSV1 SAVING "FLOW RIGHT FACE " ON UNIT  40 AT TIME STEP  1, STRESS PERIOD   3
 UBDSV1 SAVING "FLOW LOWER FACE " ON UNIT  40 AT TIME STEP  1, STRESS PERIOD   3
 UBDSV4 SAVING "           WELLS" ON UNIT  40 AT TIME STEP  1, STRESS PERIOD   3
 
 WELLS WITH REDUCED PUMPING FOR STRESS PERIOD     3 TIME STEP     1
   LAY   ROW   COL         APPL.Q          ACT.Q        GW-HEAD       CELL-BOT
    37     1    21  -0.100000E+03  -0.878774E+02   0.261739E+01   0.250000E+01
    37     1    60  -0.100000E+03  -0.805144E+01   0.350871E+01   0.350000E+01
 
 UBDSV4 SAVING "          DRAINS" ON UNIT  40 AT TIME STEP  1, STRESS PERIOD   3
 UBDSV4 SAVING " HEAD DEP BOUNDS" ON UNIT  40 AT TIME STEP  1, STRESS PERIOD   3

 SAVING SATURATED THICKNESS AND FLOW TERMS ON UNIT  333 FOR MT3DMS
 BY THE LINK-MT3DMS PACKAGE V7 AT TIME STEP    1, STRESS PERIOD    3


 HEAD WILL BE SAVED ON UNIT    2 AT END OF TIME STEP    1, STRESS PERIOD    3

 DRAWDOWN WILL BE SAVED ON UNIT   14 AT END OF TIME STEP    1, STRESS PERIOD    3
1
  VOLUMETRIC BUDGET FOR ENTIRE MODEL AT END OF TIME STEP    1, STRESS PERIOD   3
  ------------------------------------------------------------------------------

     CUMULATIVE VOLUMES      L**3       RATES FOR THIS TIME STEP      L**3/T
     ------------------                 ------------------------

           IN:                                      IN:
           ---                                      ---
             STORAGE     =         124.5310               STORAGE     =           0.0000
       CONSTANT HEAD     =           0.0000         CONSTANT HEAD     =           0.0000
               WELLS     =           0.0000                 WELLS     =           0.0000
              DRAINS     =           0.0000                DRAINS     =           0.0000
     HEAD DEP BOUNDS     =        1747.1799       HEAD DEP BOUNDS     =         140.1043

                TOTAL IN =        1871.7109                  TOTAL IN =         140.1043

          OUT:                                     OUT:
          ----                                     ----
             STORAGE     =          43.6015               STORAGE     =          43.6015
       CONSTANT HEAD     =           0.0000         CONSTANT HEAD     =           0.0000
               WELLS     =        1801.9608                 WELLS     =          95.9288
              DRAINS     =          26.1586                DRAINS     =           0.5723
     HEAD DEP BOUNDS     =           0.0000       HEAD DEP BOUNDS     =           0.0000

               TOTAL OUT =        1871.7211                 TOTAL OUT =         140.1027

                IN - OUT =      -1.0132E-02                  IN - OUT =       1.6479E-03

     PERCENT DISCREPANCY =          -0.00         PERCENT DISCREPANCY =           0.00






         TIME SUMMARY AT END OF TIME STEP    1 IN STRESS PERIOD    3
                    SECONDS     MINUTES      HOURS       DAYS        YEARS
                    -----------------------------------------------------------
   TIME STEP LENGTH  86400.      1440.0      24.000      1.0000     2.73785E-03
 STRESS PERIOD TIME  86400.      1440.0      24.000      1.0000     2.73785E-03
         TOTAL TIME 1.81440E+06  30240.      504.00      21.000     5.74949E-02
1
 
 SOLVING FOR HEAD 
                                                   Max.-Head-Change                         Max.-Flux-Residual
  Residual-Control   Outer-Iter.   Inner-Iter.     Column Row Layer    Maximum-Head-Change  Column Row Layer    Maximum-Flux-Residual          L2-NORM 
          0                 1          24            28    1    15       0.8179824075E+01      13    1    3         0.1228452826E+00      0.2022998213E+01
          0                 2          21            28    1    15      -0.5920134282E+01      28    1   14        -0.5674005747E+02      0.1590470984E+03
          0                 3          16            28    1     9      -0.4605154081E+01      28    1    9        -0.1328968795E+02      0.3134600218E+02
          0                 4          11            30    1    14       0.6192863097E+00      26    1   12        -0.7540736268E+01      0.1407259294E+02
          0                 5          11            27    1     4       0.1527146948E+00      26    1   12        -0.1754688721E+01      0.3344867396E+01
          0                 6           4            27    1     4       0.3110444231E-01      26    1   12        -0.2583833098E+00      0.4522882703E+00
          0                 7           2            27    1     4       0.2807694404E-02      26    1   12        -0.2575050246E-01      0.4247135516E-01
          0                 8           1            24    1     2      -0.2264213297E-03      26    1   12        -0.2250268839E-02      0.4012931089E-02
          0                 9           1            41    1    24       0.2082448401E-03      26    1   12        -0.2185170366E-03      0.1020700140E-02
          0                10           1            41    1    11       0.2317248576E-03      38    1   26         0.1072501336E-03      0.8957609963E-03
                                                   Max.-Head-Change                         Max.-Flux-Residual
  Residual-Control   Outer-Iter.   Inner-Iter.     Column Row Layer    Maximum-Head-Change  Column Row Layer    Maximum-Flux-Residual          L2-NORM 
          0                11           1            45    1    26       0.2041974318E-03      37    1   24        -0.1018885771E-03      0.8245582364E-03
          0                12           1            45    1    25       0.1718697421E-03      47    1   37         0.9067613185E-04      0.7454358951E-03
          0                13           1            45    1    13       0.1541733735E-03      47    1   37         0.8718069876E-04      0.6748684029E-03
          0                14           1            45    1    25       0.1333993920E-03      47    1   37         0.8185480836E-04      0.6186349068E-03
          0                15           1            45    1    13       0.1255262912E-03      47    1   37         0.7623753093E-04      0.5656232135E-03
          0                16           1            45    1    25       0.1035472466E-03      47    1   37         0.7098104039E-04      0.5236985167E-03
          0                17           1            45    1    13       0.1086739819E-03      47    1   37         0.6493627343E-04      0.4775558115E-03
          0                18           1            45    1    25       0.8596453470E-04      47    1   37         0.6157736497E-04      0.4483865413E-03
          0                19           1            45    1    13       0.9469680339E-04      47    1   37         0.5573256449E-04      0.4072885823E-03
          0                20           1            45    1    14       0.7211257904E-04      47    1   37         0.5319058165E-04      0.3842972794E-03
                                                   Max.-Head-Change                         Max.-Flux-Residual
  Residual-Control   Outer-Iter.   Inner-Iter.     Column Row Layer    Maximum-Head-Change  Column Row Layer    Maximum-Flux-Residual          L2-NORM 
          0                21           1            45    1    13       0.8222966498E-04      47    1   37         0.4774155673E-04      0.3477067904E-03
          0                22           1            45    1    14       0.6045935725E-04      47    1   37         0.4575056215E-04      0.3290969833E-03
          0                23           1            45    1    25       0.7131554901E-04      47    1   37         0.4080726860E-04      0.2968111875E-03
          0                24           1            45    1    13       0.5071306852E-04      47    1   37         0.3927078886E-04      0.2816091153E-03
          0                25           1            45    1    26       0.6176033563E-04      47    1   37         0.3485105653E-04      0.2533888271E-03
          0                26           1            45    1    13       0.4244780113E-04      47    1   37         0.3366613937E-04      0.2409267347E-03
          0                27           1            45    1    26       0.5345544522E-04      47    1   37         0.2974117103E-04      0.2163259328E-03
          0                28           1            45    1    13       0.3552074147E-04      47    1   37         0.2884790054E-04      0.2061320170E-03
          0                29           1            45    1    26       0.4620726291E-04      47    1   37         0.2537821037E-04      0.1847444420E-03
          0                30           1            45    1    13       0.2975585872E-04      47    1   37         0.2471226868E-04      0.1763791955E-03
                                                   Max.-Head-Change                         Max.-Flux-Residual
  Residual-Control   Outer-Iter.   Inner-Iter.     Column Row Layer    Maximum-Head-Change  Column Row Layer    Maximum-Flux-Residual          L2-NORM 
          0                31           1            45    1    26       0.3986329921E-04      47    1   37         0.2166151522E-04      0.1578528209E-03
          0                32           1            45    1    13       0.2499130889E-04      47    1   37         0.2116578253E-04      0.1509412381E-03
          0                33           1            45    1    26       0.3430459263E-04      47    1   37         0.1850059509E-04      0.1349654711E-03
          0                34           1            41    1    11       0.2124995851E-04      47    1   37         0.1812637676E-04      0.1291952637E-03
          0                35           1            45    1    26       0.2944077459E-04      47    1   37         0.1581470275E-04      0.1154879405E-03
          0                36           1            41    1    11       0.1815226992E-04      47    1   37         0.1552309038E-04      0.1106093235E-03

    ------------------------------------------------
       NWT REQUIRED           36 OUTER ITERATIONS 
       AND A TOTAL OF        118 INNER ITERATIONS.
    ------------------------------------------------

 OUTPUT CONTROL FOR STRESS PERIOD    3   TIME STEP    2
    PRINT BUDGET
    SAVE HEAD FOR ALL LAYERS
    SAVE DRAWDOWN FOR ALL LAYERS
    SAVE BUDGET
 UBDSV1 SAVING "         STORAGE" ON UNIT  40 AT TIME STEP  2, STRESS PERIOD   3
 UBDSV2 SAVING "   CONSTANT HEAD" ON UNIT  40 AT TIME STEP  2, STRESS PERIOD   3
 UBDSV1 SAVING "FLOW RIGHT FACE " ON UNIT  40 AT TIME STEP  2, STRESS PERIOD   3
 UBDSV1 SAVING "FLOW LOWER FACE " ON UNIT  40 AT TIME STEP  2, STRESS PERIOD   3
 UBDSV4 SAVING "           WELLS" ON UNIT  40 AT TIME STEP  2, STRESS PERIOD   3
 
 WELLS WITH REDUCED PUMPING FOR STRESS PERIOD     3 TIME STEP     2
   LAY   ROW   COL         APPL.Q          ACT.Q        GW-HEAD       CELL-BOT
    37     1    21  -0.100000E+03  -0.949207E+02   0.262953E+01   0.250000E+01
    37     1    60  -0.100000E+03  -0.151753E+02   0.351230E+01   0.350000E+01
 
 UBDSV4 SAVING "          DRAINS" ON UNIT  40 AT TIME STEP  2, STRESS PERIOD   3
 UBDSV4 SAVING " HEAD DEP BOUNDS" ON UNIT  40 AT TIME STEP  2, STRESS PERIOD   3

 SAVING SATURATED THICKNESS AND FLOW TERMS ON UNIT  333 FOR MT3DMS
 BY THE LINK-MT3DMS PACKAGE V7 AT TIME STEP    2, STRESS PERIOD    3


 HEAD WILL BE SAVED ON UNIT    2 AT END OF TIME STEP    2, STRESS PERIOD    3

 DRAWDOWN WILL BE SAVED ON UNIT   14 AT END OF TIME STEP    2, STRESS PERIOD    3
1
  VOLUMETRIC BUDGET FOR ENTIRE MODEL AT END OF TIME STEP    2, STRESS PERIOD   3
  ------------------------------------------------------------------------------

     CUMULATIVE VOLUMES      L**3       RATES FOR THIS TIME STEP      L**3/T
     ------------------                 ------------------------

           IN:                                      IN:
           ---                                      ---
             STORAGE     =         124.5310               STORAGE     =           0.0000
       CONSTANT HEAD     =           0.0000         CONSTANT HEAD     =           0.0000
               WELLS     =           0.0000                 WELLS     =           0.0000
              DRAINS     =           0.0000                DRAINS     =           0.0000
     HEAD DEP BOUNDS     =        1867.5813       HEAD DEP BOUNDS     =         120.4014

                TOTAL IN =        1992.1123                  TOTAL IN =         120.4014

          OUT:                                     OUT:
          ----                                     ----
             STORAGE     =          53.2938               STORAGE     =           9.6922
       CONSTANT HEAD     =           0.0000         CONSTANT HEAD     =           0.0000
               WELLS     =        1912.0568                 WELLS     =         110.0960
              DRAINS     =          26.7700                DRAINS     =           0.6113
     HEAD DEP BOUNDS     =           0.0000       HEAD DEP BOUNDS     =           0.0000

               TOTAL OUT =        1992.1206                 TOTAL OUT =         120.3996

                IN - OUT =      -8.3008E-03                  IN - OUT =       1.7776E-03

     PERCENT DISCREPANCY =          -0.00         PERCENT DISCREPANCY =           0.00






         TIME SUMMARY AT END OF TIME STEP    2 IN STRESS PERIOD    3
                    SECONDS     MINUTES      HOURS       DAYS        YEARS
                    -----------------------------------------------------------
   TIME STEP LENGTH  86400.      1440.0      24.000      1.0000     2.73785E-03
 STRESS PERIOD TIME 1.72800E+05  2880.0      48.000      2.0000     5.47570E-03
         TOTAL TIME 1.90080E+06  31680.      528.00      22.000     6.02327E-02
1
 
 SOLVING FOR HEAD 
                                                   Max.-Head-Change                         Max.-Flux-Residual
  Residual-Control   Outer-Iter.   Inner-Iter.     Column Row Layer    Maximum-Head-Change  Column Row Layer    Maximum-Flux-Residual          L2-NORM 
          0                 1          21            45    1    26       0.1831218707E+01      39    1   25         0.1205133454E+00      0.8316251245E+00
          0                 2          16            41    1    24      -0.6991828618E+00      41    1   24        -0.4397969130E+01      0.1911406425E+02
          0                 3          11            45    1    13      -0.3428447732E+00      47    1   27        -0.5147460658E+01      0.8591581181E+01
          0                 4           6            48    1    26       0.2311209212E+00      48    1   27         0.7399445976E+00      0.1291302454E+01
          0                 5           2            48    1    14       0.1818085733E-01      47    1   27        -0.7590131726E-01      0.1209069172E+00
          0                 6           5            37    1     9      -0.6639466143E-02      47    1   27        -0.3953522178E-02      0.6592094667E-02
          0                 7           1            43    1    12      -0.2561531476E-03      43    1   26         0.1949313902E-02      0.9437875140E-02
          0                 8           1            47    1    39      -0.6906389101E-04      43    1   25        -0.1927130487E-03      0.9340309715E-03
          0                 9           1            47    1    39      -0.1154015840E-03      47    1   39        -0.5834268988E-04      0.3803176569E-03
          0                10           1            59    1    33      -0.1141433324E-03      55    1   31        -0.4351145355E-04      0.3167049078E-03
                                                   Max.-Head-Change                         Max.-Flux-Residual
  Residual-Control   Outer-Iter.   Inner-Iter.     Column Row Layer    Maximum-Head-Change  Column Row Layer    Maximum-Flux-Residual          L2-NORM 
          0                11           1            59    1    21      -0.4998563443E-04      39    1   29        -0.3883368345E-04      0.2607423343E-03
          0                12           1            55    1    19      -0.5027855147E-04      55    1   31        -0.2835272002E-04      0.2205737434E-03
          0                13           1            59    1    33      -0.3768047981E-04      39    1   29        -0.2646482841E-04      0.1957076022E-03
          0                14           1            55    1    29      -0.3346404659E-04      39    1   29        -0.2317912214E-04      0.1750710255E-03
          0                15           1            51    1    28      -0.2850744492E-04      39    1   29        -0.2094932643E-04      0.1580534497E-03
          0                16           1            47    1    15      -0.2575921020E-04      39    1   29        -0.2004526846E-04      0.1441131158E-03
          0                17           1            51    1    28      -0.2273101850E-04      39    1   29        -0.1750637387E-04      0.1312090635E-03
          0                18           1            47    1    15      -0.2141760651E-04      39    1   29        -0.1709165738E-04      0.1205255464E-03
          0                19           1            47    1    25      -0.1864436298E-04      39    1   29        -0.1487281818E-04      0.1104689522E-03
          0                20           1            47    1    15      -0.1803692462E-04      39    1   29        -0.1453300635E-04      0.1018538305E-03

    ------------------------------------------------
       NWT REQUIRED           20 OUTER ITERATIONS 
       AND A TOTAL OF         75 INNER ITERATIONS.
    ------------------------------------------------

 OUTPUT CONTROL FOR STRESS PERIOD    3   TIME STEP    3
    PRINT BUDGET
    SAVE HEAD FOR ALL LAYERS
    SAVE DRAWDOWN FOR ALL LAYERS
    SAVE BUDGET
 UBDSV1 SAVING "         STORAGE" ON UNIT  40 AT TIME STEP  3, STRESS PERIOD   3
 UBDSV2 SAVING "   CONSTANT HEAD" ON UNIT  40 AT TIME STEP  3, STRESS PERIOD   3
 UBDSV1 SAVING "FLOW RIGHT FACE " ON UNIT  40 AT TIME STEP  3, STRESS PERIOD   3
 UBDSV1 SAVING "FLOW LOWER FACE " ON UNIT  40 AT TIME STEP  3, STRESS PERIOD   3
 UBDSV4 SAVING "           WELLS" ON UNIT  40 AT TIME STEP  3, STRESS PERIOD   3
 
 WELLS WITH REDUCED PUMPING FOR STRESS PERIOD     3 TIME STEP     3
   LAY   ROW   COL         APPL.Q          ACT.Q        GW-HEAD       CELL-BOT
    37     1    21  -0.100000E+03  -0.962666E+02   0.263258E+01   0.250000E+01
    37     1    60  -0.100000E+03  -0.183255E+02   0.351367E+01   0.350000E+01
 
 UBDSV4 SAVING "          DRAINS" ON UNIT  40 AT TIME STEP  3, STRESS PERIOD   3
 UBDSV4 SAVING " HEAD DEP BOUNDS" ON UNIT  40 AT TIME STEP  3, STRESS PERIOD   3

 SAVING SATURATED THICKNESS AND FLOW TERMS ON UNIT  333 FOR MT3DMS
 BY THE LINK-MT3DMS PACKAGE V7 AT TIME STEP    3, STRESS PERIOD    3


 HEAD WILL BE SAVED ON UNIT    2 AT END OF TIME STEP    3, STRESS PERIOD    3

 DRAWDOWN WILL BE SAVED ON UNIT   14 AT END OF TIME STEP    3, STRESS PERIOD    3
1
  VOLUMETRIC BUDGET FOR ENTIRE MODEL AT END OF TIME STEP    3, STRESS PERIOD   3
  ------------------------------------------------------------------------------

     CUMULATIVE VOLUMES      L**3       RATES FOR THIS TIME STEP      L**3/T
     ------------------                 ------------------------

           IN:                                      IN:
           ---                                      ---
             STORAGE     =         124.5310               STORAGE     =           0.0000
       CONSTANT HEAD     =           0.0000         CONSTANT HEAD     =           0.0000
               WELLS     =           0.0000                 WELLS     =           0.0000
              DRAINS     =           0.0000                DRAINS     =           0.0000
     HEAD DEP BOUNDS     =        1986.0415       HEAD DEP BOUNDS     =         118.4602

                TOTAL IN =        2110.5725                  TOTAL IN =         118.4602

          OUT:                                     OUT:
          ----                                     ----
             STORAGE     =          56.4986               STORAGE     =           3.2048
       CONSTANT HEAD     =           0.0000         CONSTANT HEAD     =           0.0000
               WELLS     =        2026.6488                 WELLS     =         114.5921
              DRAINS     =          27.4349                DRAINS     =           0.6650
     HEAD DEP BOUNDS     =           0.0000       HEAD DEP BOUNDS     =           0.0000

               TOTAL OUT =        2110.5825                 TOTAL OUT =         118.4619

                IN - OUT =      -1.0010E-02                  IN - OUT =      -1.6937E-03

     PERCENT DISCREPANCY =          -0.00         PERCENT DISCREPANCY =          -0.00






         TIME SUMMARY AT END OF TIME STEP    3 IN STRESS PERIOD    3
                    SECONDS     MINUTES      HOURS       DAYS        YEARS
                    -----------------------------------------------------------
   TIME STEP LENGTH  86400.      1440.0      24.000      1.0000     2.73785E-03
 STRESS PERIOD TIME 2.59200E+05  4320.0      72.000      3.0000     8.21355E-03
         TOTAL TIME 1.98720E+06  33120.      552.00      23.000     6.29706E-02
1
 
 SOLVING FOR HEAD 
                                                   Max.-Head-Change                         Max.-Flux-Residual
  Residual-Control   Outer-Iter.   Inner-Iter.     Column Row Layer    Maximum-Head-Change  Column Row Layer    Maximum-Flux-Residual          L2-NORM 
          0                 1          16            37    1     9       0.5955320062E+00      39    1   23         0.9123157601E-01      0.3650454970E+00
          0                 2           6            39    1    10      -0.1821225354E+00      40    1   23        -0.1407409089E+01      0.3970475426E+01
          0                 3           6            61    1    34       0.7149772589E-01      39    1   22        -0.1961749331E+00      0.4115265524E+00
          0                 4           2            60    1    21      -0.1822256505E-02      39    1   22        -0.1060688968E-01      0.1862178045E-01
          0                 5           1            60    1    21      -0.2924778802E-03      39    1   22        -0.3423545237E-03      0.2166849678E-02
          0                 6           1            54    1    28      -0.4803252960E-03      40    1   22        -0.1971967700E-03      0.1932911638E-02
          0                 7           1            37    1     9      -0.2602646150E-03      37    1   21        -0.2335486107E-03      0.1752115029E-02
          0                 8           1            54    1    28      -0.3548469704E-03      40    1   22        -0.1578270361E-03      0.1601500207E-02
          0                 9           1            37    1    19      -0.2357477577E-03      37    1   21        -0.2048145130E-03      0.1466264047E-02
          0                10           1            54    1    28      -0.2633341588E-03      40    1   22        -0.1301556360E-03      0.1345295951E-02
                                                   Max.-Head-Change                         Max.-Flux-Residual
  Residual-Control   Outer-Iter.   Inner-Iter.     Column Row Layer    Maximum-Head-Change  Column Row Layer    Maximum-Flux-Residual          L2-NORM 
          0                11           1            37    1    19      -0.2169584539E-03      37    1   21        -0.1734884944E-03      0.1238491989E-02
          0                12           1            54    1    28      -0.1976979031E-03      35    1   23        -0.1147354266E-03      0.1139230002E-02
          0                13           1            37    1    20      -0.2036003230E-03      37    1   21        -0.1445646940E-03      0.1051485331E-02
          0                14           1            54    1    29      -0.1497474814E-03      35    1   23        -0.1026914594E-03      0.9680946776E-03
          0                15           1            37    1    20      -0.1949551190E-03      37    1   21        -0.1191628612E-03      0.8935349395E-03
          0                16           1            54    1    29      -0.1140088717E-03      35    1   23        -0.9211888224E-04      0.8215868062E-03
          0                17           1            37    1    20      -0.1904426810E-03      37    1   21        -0.9710479131E-04      0.7562098780E-03
          0                18           1            54    1    29      -0.8676162227E-04      35    1   23        -0.8249592213E-04      0.6923456987E-03
          0                19           1            37    1    20      -0.1897232916E-03      37    1   21        -0.7787508804E-04      0.6332699378E-03
          0                20           1            54    1    29      -0.6545517800E-04      35    1   23        -0.7330296862E-04      0.5748747235E-03
                                                   Max.-Head-Change                         Max.-Flux-Residual
  Residual-Control   Outer-Iter.   Inner-Iter.     Column Row Layer    Maximum-Head-Change  Column Row Layer    Maximum-Flux-Residual          L2-NORM 
          0                21           1            37    1    20      -0.1925350654E-03      37    1   21        -0.6093248467E-04      0.5199280584E-03
          0                22           1            54    1    29      -0.4830325854E-04      35    1   23        -0.6396559650E-04      0.4648679112E-03
          0                23           1            37    1    20      -0.1982357131E-03      37    1   21        -0.4581188472E-04      0.4123799564E-03
          0                24           1            55    1    30      -0.3429827491E-04      35    1   23        -0.5373399844E-04      0.3588407518E-03
          0                25           1            54    1    17      -0.2040931464E-03      37    1   21        -0.3217617424E-04      0.3076731908E-03
          0                26           1            55    1    30      -0.2239425593E-04      35    1   23        -0.4149608665E-04      0.2542630153E-03
          0                27           1            54    1    17      -0.2033057635E-03      37    1   21        -0.1992336189E-04      0.2044323093E-03
          0                28           1            55    1    30      -0.1205913066E-04      40    1   23         0.3803311658E-04      0.1514867703E-03
          0                29           1            54    1    17      -0.1538615801E-03      37    1   21        -0.9548265695E-05      0.1066582657E-03
          0                30           1            55    1    30      -0.4330294879E-05      40    1   23         0.2865590280E-04      0.6301091532E-04

    ------------------------------------------------
       NWT REQUIRED           30 OUTER ITERATIONS 
       AND A TOTAL OF         56 INNER ITERATIONS.
    ------------------------------------------------

 OUTPUT CONTROL FOR STRESS PERIOD    3   TIME STEP    4
    PRINT BUDGET
    SAVE HEAD FOR ALL LAYERS
    SAVE DRAWDOWN FOR ALL LAYERS
    SAVE BUDGET
 UBDSV1 SAVING "         STORAGE" ON UNIT  40 AT TIME STEP  4, STRESS PERIOD   3
 UBDSV2 SAVING "   CONSTANT HEAD" ON UNIT  40 AT TIME STEP  4, STRESS PERIOD   3
 UBDSV1 SAVING "FLOW RIGHT FACE " ON UNIT  40 AT TIME STEP  4, STRESS PERIOD   3
 UBDSV1 SAVING "FLOW LOWER FACE " ON UNIT  40 AT TIME STEP  4, STRESS PERIOD   3
 UBDSV4 SAVING "           WELLS" ON UNIT  40 AT TIME STEP  4, STRESS PERIOD   3
 
 WELLS WITH REDUCED PUMPING FOR STRESS PERIOD     3 TIME STEP     4
   LAY   ROW   COL         APPL.Q          ACT.Q        GW-HEAD       CELL-BOT
    37     1    21  -0.100000E+03  -0.966157E+02   0.263345E+01   0.250000E+01
    37     1    60  -0.100000E+03  -0.194888E+02   0.351415E+01   0.350000E+01
 
 UBDSV4 SAVING "          DRAINS" ON UNIT  40 AT TIME STEP  4, STRESS PERIOD   3
 UBDSV4 SAVING " HEAD DEP BOUNDS" ON UNIT  40 AT TIME STEP  4, STRESS PERIOD   3

 SAVING SATURATED THICKNESS AND FLOW TERMS ON UNIT  333 FOR MT3DMS
 BY THE LINK-MT3DMS PACKAGE V7 AT TIME STEP    4, STRESS PERIOD    3


 HEAD WILL BE SAVED ON UNIT    2 AT END OF TIME STEP    4, STRESS PERIOD    3

 DRAWDOWN WILL BE SAVED ON UNIT   14 AT END OF TIME STEP    4, STRESS PERIOD    3
1
  VOLUMETRIC BUDGET FOR ENTIRE MODEL AT END OF TIME STEP    4, STRESS PERIOD   3
  ------------------------------------------------------------------------------

     CUMULATIVE VOLUMES      L**3       RATES FOR THIS TIME STEP      L**3/T
     ------------------                 ------------------------

           IN:                                      IN:
           ---                                      ---
             STORAGE     =         124.5310               STORAGE     =       4.6868E-10
       CONSTANT HEAD     =           0.0000         CONSTANT HEAD     =           0.0000
               WELLS     =           0.0000                 WELLS     =           0.0000
              DRAINS     =           0.0000                DRAINS     =           0.0000
     HEAD DEP BOUNDS     =        2104.0032       HEAD DEP BOUNDS     =         117.9618

                TOTAL IN =        2228.5342                  TOTAL IN =         117.9618

          OUT:                                     OUT:
          ----                                     ----
             STORAGE     =          57.6373               STORAGE     =           1.1387
       CONSTANT HEAD     =           0.0000         CONSTANT HEAD     =           0.0000
               WELLS     =        2142.7534                 WELLS     =         116.1045
              DRAINS     =          28.1542                DRAINS     =           0.7193
     HEAD DEP BOUNDS     =           0.0000       HEAD DEP BOUNDS     =           0.0000

               TOTAL OUT =        2228.5452                 TOTAL OUT =         117.9625

                IN - OUT =      -1.0986E-02                  IN - OUT =      -7.0953E-04

     PERCENT DISCREPANCY =          -0.00         PERCENT DISCREPANCY =          -0.00






         TIME SUMMARY AT END OF TIME STEP    4 IN STRESS PERIOD    3
                    SECONDS     MINUTES      HOURS       DAYS        YEARS
                    -----------------------------------------------------------
   TIME STEP LENGTH  86400.      1440.0      24.000      1.0000     2.73785E-03
 STRESS PERIOD TIME 3.45600E+05  5760.0      96.000      4.0000     1.09514E-02
         TOTAL TIME 2.07360E+06  34560.      576.00      24.000     6.57084E-02
1
 
 SOLVING FOR HEAD 
                                                   Max.-Head-Change                         Max.-Flux-Residual
  Residual-Control   Outer-Iter.   Inner-Iter.     Column Row Layer    Maximum-Head-Change  Column Row Layer    Maximum-Flux-Residual          L2-NORM 
          0                 1          11            54    1    29       0.1333605879E+00      41    1   23         0.2992267338E-01      0.1287436412E+00
          0                 2           5            36    1    21       0.1315767195E-01      36    1   21         0.1146829103E+00      0.2081190036E+00
          0                 3           1            60    1    20      -0.3364752895E-03      37    1   21        -0.2424098075E-02      0.4398027481E-02
          0                 4           1            54    1    17       0.3221990588E-03      42    1   32         0.1032911337E-03      0.1197952424E-02
          0                 5           1            55    1    19       0.1448943865E-03      49    1   28         0.1781763903E-03      0.1152257944E-02
          0                 6           1            61    1    21       0.2352830248E-03      38    1   22         0.1005195281E-03      0.9524733739E-03
          0                 7           1            54    1    29       0.1128569329E-03      34    1   22         0.1391912085E-03      0.9037453842E-03
          0                 8           1            61    1    21       0.1859942409E-03      42    1   24         0.8690655623E-04      0.7793336600E-03
          0                 9           1            54    1    29       0.9401748576E-04      34    1   22         0.1023280939E-03      0.7388803311E-03
          0                10           1            61    1    21       0.1401661751E-03      37    1   21         0.7588210269E-04      0.6521144325E-03
                                                   Max.-Head-Change                         Max.-Flux-Residual
  Residual-Control   Outer-Iter.   Inner-Iter.     Column Row Layer    Maximum-Head-Change  Column Row Layer    Maximum-Flux-Residual          L2-NORM 
          0                11           1            54    1    29       0.8079368589E-04      34    1   22         0.7393061173E-04      0.6147415757E-03
          0                12           1            61    1    21       0.1065251986E-03      37    1   21         0.6637647698E-04      0.5510678394E-03
          0                13           1            54    1    29       0.6958724139E-04      34    1   22         0.5495294468E-04      0.5172188935E-03
          0                14           1            37    1    19       0.8429785567E-04      37    1   21         0.5591288308E-04      0.4676012512E-03
          0                15           1            54    1    29       0.5974720978E-04      42    1   24         0.4533733001E-04      0.4376574902E-03
          0                16           1            37    1    19       0.6983812120E-04      37    1   21         0.4655032902E-04      0.3975662101E-03
          0                17           1            54    1    29       0.5116238459E-04      42    1   24         0.3950638535E-04      0.3714593426E-03
          0                18           1            37    1    19       0.5837599590E-04      37    1   21         0.3873889216E-04      0.3383873446E-03
          0                19           1            54    1    29       0.4373878498E-04      42    1   24         0.3421145658E-04      0.3157984976E-03
          0                20           1            37    1     9       0.4907563665E-04      37    1   21         0.3235134560E-04      0.2881977443E-03
                                                   Max.-Head-Change                         Max.-Flux-Residual
  Residual-Control   Outer-Iter.   Inner-Iter.     Column Row Layer    Maximum-Head-Change  Column Row Layer    Maximum-Flux-Residual          L2-NORM 
          0                21           1            54    1    29       0.3735621164E-04      42    1   24         0.2949311708E-04      0.2687324858E-03
          0                22           1            37    1     9       0.4141272868E-04      37    1   21         0.2713160922E-04      0.2455432524E-03
          0                23           1            54    1    29       0.3188728997E-04      42    1   24         0.2534358835E-04      0.2288102443E-03
          0                24           1            37    1     9       0.3503271603E-04      37    1   21         0.2284109024E-04      0.2092485696E-03
          0                25           1            54    1    29       0.2721081593E-04      42    1   24         0.2172762142E-04      0.1948871425E-03
          0                26           1            37    1     9       0.2968546874E-04      37    1   21         0.1928919420E-04      0.1783433603E-03
          0                27           1            54    1    29       0.2321707713E-04      42    1   24         0.1859673169E-04      0.1660308919E-03
          0                28           1            37    1     9       0.2518317481E-04      37    1   21         0.1632966300E-04      0.1520162223E-03
          0                29           1            54    1    29       0.1980914720E-04      42    1   24         0.1589800341E-04      0.1414683500E-03
          0                30           1            37    1     9       0.2138010586E-04      37    1   21         0.1385048498E-04      0.1295834124E-03
                                                   Max.-Head-Change                         Max.-Flux-Residual
  Residual-Control   Outer-Iter.   Inner-Iter.     Column Row Layer    Maximum-Head-Change  Column Row Layer    Maximum-Flux-Residual          L2-NORM 
          0                31           1            54    1    29       0.1690250401E-04      42    1   24         0.1357914789E-04      0.1205517386E-03
          0                32           1            37    1     9       0.1816043480E-04      37    1   21         0.1176486973E-04      0.1104660706E-03
          0                33           1            54    1    29       0.1442404158E-04      42    1   24         0.1159117271E-04      0.1027349917E-03

    ------------------------------------------------
       NWT REQUIRED           33 OUTER ITERATIONS 
       AND A TOTAL OF         47 INNER ITERATIONS.
    ------------------------------------------------

 OUTPUT CONTROL FOR STRESS PERIOD    3   TIME STEP    5
    PRINT BUDGET
    SAVE HEAD FOR ALL LAYERS
    SAVE DRAWDOWN FOR ALL LAYERS
    SAVE BUDGET
 UBDSV1 SAVING "         STORAGE" ON UNIT  40 AT TIME STEP  5, STRESS PERIOD   3
 UBDSV2 SAVING "   CONSTANT HEAD" ON UNIT  40 AT TIME STEP  5, STRESS PERIOD   3
 UBDSV1 SAVING "FLOW RIGHT FACE " ON UNIT  40 AT TIME STEP  5, STRESS PERIOD   3
 UBDSV1 SAVING "FLOW LOWER FACE " ON UNIT  40 AT TIME STEP  5, STRESS PERIOD   3
 UBDSV4 SAVING "           WELLS" ON UNIT  40 AT TIME STEP  5, STRESS PERIOD   3
 
 WELLS WITH REDUCED PUMPING FOR STRESS PERIOD     3 TIME STEP     5
   LAY   ROW   COL         APPL.Q          ACT.Q        GW-HEAD       CELL-BOT
    37     1    21  -0.100000E+03  -0.967141E+02   0.263370E+01   0.250000E+01
    37     1    60  -0.100000E+03  -0.199007E+02   0.351432E+01   0.350000E+01
 
 UBDSV4 SAVING "          DRAINS" ON UNIT  40 AT TIME STEP  5, STRESS PERIOD   3
 UBDSV4 SAVING " HEAD DEP BOUNDS" ON UNIT  40 AT TIME STEP  5, STRESS PERIOD   3

 SAVING SATURATED THICKNESS AND FLOW TERMS ON UNIT  333 FOR MT3DMS
 BY THE LINK-MT3DMS PACKAGE V7 AT TIME STEP    5, STRESS PERIOD    3


 HEAD WILL BE SAVED ON UNIT    2 AT END OF TIME STEP    5, STRESS PERIOD    3

 DRAWDOWN WILL BE SAVED ON UNIT   14 AT END OF TIME STEP    5, STRESS PERIOD    3
1
  VOLUMETRIC BUDGET FOR ENTIRE MODEL AT END OF TIME STEP    5, STRESS PERIOD   3
  ------------------------------------------------------------------------------

     CUMULATIVE VOLUMES      L**3       RATES FOR THIS TIME STEP      L**3/T
     ------------------                 ------------------------

           IN:                                      IN:
           ---                                      ---
             STORAGE     =         124.5310               STORAGE     =       9.9793E-10
       CONSTANT HEAD     =           0.0000         CONSTANT HEAD     =           0.0000
               WELLS     =           0.0000                 WELLS     =           0.0000
              DRAINS     =           0.0000                DRAINS     =           0.0000
     HEAD DEP BOUNDS     =        2221.8308       HEAD DEP BOUNDS     =         117.8276

                TOTAL IN =        2346.3618                  TOTAL IN =         117.8276

          OUT:                                     OUT:
          ----                                     ----
             STORAGE     =          58.0817               STORAGE     =           0.4444
       CONSTANT HEAD     =           0.0000         CONSTANT HEAD     =           0.0000
               WELLS     =        2259.3682                 WELLS     =         116.6147
              DRAINS     =          28.9209                DRAINS     =           0.7666
     HEAD DEP BOUNDS     =           0.0000       HEAD DEP BOUNDS     =           0.0000

               TOTAL OUT =        2346.3708                 TOTAL OUT =         117.8258

                IN - OUT =      -9.0332E-03                  IN - OUT =       1.8616E-03

     PERCENT DISCREPANCY =          -0.00         PERCENT DISCREPANCY =           0.00






         TIME SUMMARY AT END OF TIME STEP    5 IN STRESS PERIOD    3
                    SECONDS     MINUTES      HOURS       DAYS        YEARS
                    -----------------------------------------------------------
   TIME STEP LENGTH  86400.      1440.0      24.000      1.0000     2.73785E-03
 STRESS PERIOD TIME 4.32000E+05  7200.0      120.00      5.0000     1.36893E-02
         TOTAL TIME 2.16000E+06  36000.      600.00      25.000     6.84463E-02
1
 
 SOLVING FOR HEAD 
                                                   Max.-Head-Change                         Max.-Flux-Residual
  Residual-Control   Outer-Iter.   Inner-Iter.     Column Row Layer    Maximum-Head-Change  Column Row Layer    Maximum-Flux-Residual          L2-NORM 
          0                 1          11            54    1    29       0.4484756205E-01      53    1   29         0.1001659712E-01      0.4823702597E-01
          0                 2           2            34    1    12       0.3564449801E-02      33    1   17        -0.1768006832E-01      0.2592156907E-01
          0                 3           1            33    1     7      -0.1091773116E-03      33    1   17        -0.5962489894E-03      0.8634700524E-03
          0                 4           1            54    1    24       0.1708952203E-03      49    1   27         0.6444004883E-04      0.4318820063E-03
          0                 5           1            54    1    23       0.6518990891E-04      46    1   25         0.5673999726E-04      0.3763458695E-03
          0                 6           1            54    1    23       0.4877734551E-04      49    1   27         0.3814604753E-04      0.2937394265E-03
          0                 7           1            61    1    21       0.4721286483E-04      49    1   27         0.3458331388E-04      0.2618839605E-03
          0                 8           1            54    1    23       0.3695329644E-04      49    1   27         0.3136557382E-04      0.2378011739E-03
          0                 9           1            54    1    28       0.3796639209E-04      49    1   27         0.2798261988E-04      0.2147892041E-03
          0                10           1            54    1    23       0.2974270453E-04      49    1   27         0.2575677516E-04      0.1968984735E-03
                                                   Max.-Head-Change                         Max.-Flux-Residual
  Residual-Control   Outer-Iter.   Inner-Iter.     Column Row Layer    Maximum-Head-Change  Column Row Layer    Maximum-Flux-Residual          L2-NORM 
          0                11           1            54    1    24       0.3038098482E-04      49    1   27         0.2296986756E-04      0.1785039416E-03
          0                12           1            54    1    23       0.2460129929E-04      49    1   27         0.2121507283E-04      0.1643043571E-03
          0                13           1            54    1    24       0.2449460817E-04      49    1   27         0.1909017108E-04      0.1496404220E-03
          0                14           1            54    1    23       0.2061569983E-04      49    1   27         0.1759308843E-04      0.1379685325E-03
          0                15           1            37    1    20       0.2008257962E-04      49    1   27         0.1599623165E-04      0.1261606879E-03
          0                16           1            54    1    22       0.1740514610E-04      49    1   27         0.1468003094E-04      0.1163974270E-03
          0                17           1            37    1    20       0.1695044361E-04      49    1   27         0.1347701493E-04      0.1067701156E-03

    ------------------------------------------------
       NWT REQUIRED           17 OUTER ITERATIONS 
       AND A TOTAL OF         28 INNER ITERATIONS.
    ------------------------------------------------

 OUTPUT CONTROL FOR STRESS PERIOD    3   TIME STEP    6
    PRINT BUDGET
    SAVE HEAD FOR ALL LAYERS
    SAVE DRAWDOWN FOR ALL LAYERS
    SAVE BUDGET
 UBDSV1 SAVING "         STORAGE" ON UNIT  40 AT TIME STEP  6, STRESS PERIOD   3
 UBDSV2 SAVING "   CONSTANT HEAD" ON UNIT  40 AT TIME STEP  6, STRESS PERIOD   3
 UBDSV1 SAVING "FLOW RIGHT FACE " ON UNIT  40 AT TIME STEP  6, STRESS PERIOD   3
 UBDSV1 SAVING "FLOW LOWER FACE " ON UNIT  40 AT TIME STEP  6, STRESS PERIOD   3
 UBDSV4 SAVING "           WELLS" ON UNIT  40 AT TIME STEP  6, STRESS PERIOD   3
 
 WELLS WITH REDUCED PUMPING FOR STRESS PERIOD     3 TIME STEP     6
   LAY   ROW   COL         APPL.Q          ACT.Q        GW-HEAD       CELL-BOT
    37     1    21  -0.100000E+03  -0.967441E+02   0.263378E+01   0.250000E+01
    37     1    60  -0.100000E+03  -0.200470E+02   0.351438E+01   0.350000E+01
 
 UBDSV4 SAVING "          DRAINS" ON UNIT  40 AT TIME STEP  6, STRESS PERIOD   3
 UBDSV4 SAVING " HEAD DEP BOUNDS" ON UNIT  40 AT TIME STEP  6, STRESS PERIOD   3

 SAVING SATURATED THICKNESS AND FLOW TERMS ON UNIT  333 FOR MT3DMS
 BY THE LINK-MT3DMS PACKAGE V7 AT TIME STEP    6, STRESS PERIOD    3


 HEAD WILL BE SAVED ON UNIT    2 AT END OF TIME STEP    6, STRESS PERIOD    3

 DRAWDOWN WILL BE SAVED ON UNIT   14 AT END OF TIME STEP    6, STRESS PERIOD    3
1
  VOLUMETRIC BUDGET FOR ENTIRE MODEL AT END OF TIME STEP    6, STRESS PERIOD   3
  ------------------------------------------------------------------------------

     CUMULATIVE VOLUMES      L**3       RATES FOR THIS TIME STEP      L**3/T
     ------------------                 ------------------------

           IN:                                      IN:
           ---                                      ---
             STORAGE     =         124.5310               STORAGE     =       1.4137E-09
       CONSTANT HEAD     =           0.0000         CONSTANT HEAD     =           0.0000
               WELLS     =           0.0000                 WELLS     =           0.0000
              DRAINS     =           0.0000                DRAINS     =           0.0000
     HEAD DEP BOUNDS     =        2339.6196       HEAD DEP BOUNDS     =         117.7887

                TOTAL IN =        2464.1506                  TOTAL IN =         117.7887

          OUT:                                     OUT:
          ----                                     ----
             STORAGE     =          58.2761               STORAGE     =           0.1944
       CONSTANT HEAD     =           0.0000         CONSTANT HEAD     =           0.0000
               WELLS     =        2376.1592                 WELLS     =         116.7911
              DRAINS     =          29.7222                DRAINS     =           0.8013
     HEAD DEP BOUNDS     =           0.0000       HEAD DEP BOUNDS     =           0.0000

               TOTAL OUT =        2464.1575                 TOTAL OUT =         117.7868

                IN - OUT =      -6.8359E-03                  IN - OUT =       1.9226E-03

     PERCENT DISCREPANCY =          -0.00         PERCENT DISCREPANCY =           0.00






         TIME SUMMARY AT END OF TIME STEP    6 IN STRESS PERIOD    3
                    SECONDS     MINUTES      HOURS       DAYS        YEARS
                    -----------------------------------------------------------
   TIME STEP LENGTH  86400.      1440.0      24.000      1.0000     2.73785E-03
 STRESS PERIOD TIME 5.18400E+05  8640.0      144.00      6.0000     1.64271E-02
         TOTAL TIME 2.24640E+06  37440.      624.00      26.000     7.11841E-02
1
 
 SOLVING FOR HEAD 
                                                   Max.-Head-Change                         Max.-Flux-Residual
  Residual-Control   Outer-Iter.   Inner-Iter.     Column Row Layer    Maximum-Head-Change  Column Row Layer    Maximum-Flux-Residual          L2-NORM 
          0                 1           6            84    1    37       0.2632611416E-01      53    1   29         0.3421208687E-02      0.2144972604E-01
          0                 2           2            56    1    30       0.2245752725E-02      55    1   30        -0.8701869614E-02      0.1471462889E-01
          0                 3           1            56    1    18       0.2664619814E-03      55    1   30        -0.2704062569E-03      0.1445047940E-02
          0                 4           1            56    1    30       0.2580060745E-03      44    1   28         0.1510044074E-03      0.1264610636E-02
          0                 5           1            56    1    18       0.1969656216E-03      46    1   26         0.1380536013E-03      0.1151447491E-02
          0                 6           1            56    1    30       0.2028239847E-03      53    1   33         0.1219966673E-03      0.1056706596E-02
          0                 7           1            56    1    18       0.1629442898E-03      46    1   26         0.1201315631E-03      0.9685622571E-03
          0                 8           1            56    1    30       0.1766186526E-03      53    1   33         0.9593543386E-04      0.8930782468E-03
          0                 9           1            56    1    18       0.1317630314E-03      46    1   26         0.1026130595E-03      0.8185894708E-03
          0                10           1            56    1    30       0.1602698417E-03      53    1   33         0.7526326858E-04      0.7553474211E-03
                                                   Max.-Head-Change                         Max.-Flux-Residual
  Residual-Control   Outer-Iter.   Inner-Iter.     Column Row Layer    Maximum-Head-Change  Column Row Layer    Maximum-Flux-Residual          L2-NORM 
          0                11           1            56    1    18       0.1062300625E-03      46    1   26         0.8670378583E-04      0.6910903614E-03
          0                12           1            56    1    30       0.1463865561E-03      49    1   27         0.6055572001E-04      0.6367047898E-03
          0                13           1            56    1    30       0.8615246969E-04      46    1   26         0.7236437968E-04      0.5808457795E-03
          0                14           1            56    1    18       0.1319992919E-03      43    1   29         0.4944769830E-04      0.5336789753E-03
          0                15           1            56    1    30       0.7032804320E-04      46    1   26         0.5969273978E-04      0.4853048272E-03
          0                16           1            56    1    18       0.1162341854E-03      42    1   24         0.4059323238E-04      0.4445882621E-03
          0                17           1            56    1    30       0.5746252623E-04      46    1   26         0.4879027421E-04      0.4031454485E-03
          0                18           1            56    1    18       0.1001054360E-03      42    1   24         0.3363052832E-04      0.3683784837E-03
          0                19           1            56    1    30       0.4696663600E-04      46    1   26         0.3963908054E-04      0.3333153064E-03
          0                20           1            56    1    18       0.8471067517E-04      42    1   24         0.2772347501E-04      0.3039781644E-03
                                                   Max.-Head-Change                         Max.-Flux-Residual
  Residual-Control   Outer-Iter.   Inner-Iter.     Column Row Layer    Maximum-Head-Change  Column Row Layer    Maximum-Flux-Residual          L2-NORM 
          0                21           1            56    1    30       0.3839810613E-04      46    1   26         0.3209808838E-04      0.2746361682E-03
          0                22           1            56    1    18       0.7077862089E-04      42    1   24         0.2277461940E-04      0.2501283909E-03
          0                23           1            56    1    30       0.3140496709E-04      46    1   26         0.2595799553E-04      0.2257772595E-03
          0                24           1            56    1    18       0.5863014267E-04      42    1   24         0.1866708675E-04      0.2054566278E-03
          0                25           1            56    1    30       0.2569892728E-04      46    1   26         0.2099316906E-04      0.1853633092E-03
          0                26           1            56    1    18       0.4829653475E-04      42    1   24         0.1528005038E-04      0.1686006961E-03
          0                27           1            56    1    30       0.2104273911E-04      46    1   26         0.1699244312E-04      0.1520821220E-03
          0                28           1            56    1    18       0.3964772658E-04      42    1   24         0.1249923712E-04      0.1382998450E-03
          0                29           1            56    1    30       0.1724182718E-04      46    1   26         0.1377229728E-04      0.1247502610E-03
          0                30           1            56    1    18       0.3248346705E-04      42    1   24         0.1022238855E-04      0.1134404011E-03
                                                   Max.-Head-Change                         Max.-Flux-Residual
  Residual-Control   Outer-Iter.   Inner-Iter.     Column Row Layer    Maximum-Head-Change  Column Row Layer    Maximum-Flux-Residual          L2-NORM 
          0                31           1            56    1    30       0.1413728497E-04      46    1   26         0.1117968765E-04      0.1023395252E-03

    ------------------------------------------------
       NWT REQUIRED           31 OUTER ITERATIONS 
       AND A TOTAL OF         37 INNER ITERATIONS.
    ------------------------------------------------

 OUTPUT CONTROL FOR STRESS PERIOD    3   TIME STEP    7
    PRINT BUDGET
    SAVE HEAD FOR ALL LAYERS
    SAVE DRAWDOWN FOR ALL LAYERS
    SAVE BUDGET
 UBDSV1 SAVING "         STORAGE" ON UNIT  40 AT TIME STEP  7, STRESS PERIOD   3
 UBDSV2 SAVING "   CONSTANT HEAD" ON UNIT  40 AT TIME STEP  7, STRESS PERIOD   3
 UBDSV1 SAVING "FLOW RIGHT FACE " ON UNIT  40 AT TIME STEP  7, STRESS PERIOD   3
 UBDSV1 SAVING "FLOW LOWER FACE " ON UNIT  40 AT TIME STEP  7, STRESS PERIOD   3
 UBDSV4 SAVING "           WELLS" ON UNIT  40 AT TIME STEP  7, STRESS PERIOD   3
 
 WELLS WITH REDUCED PUMPING FOR STRESS PERIOD     3 TIME STEP     7
   LAY   ROW   COL         APPL.Q          ACT.Q        GW-HEAD       CELL-BOT
    37     1    21  -0.100000E+03  -0.967533E+02   0.263380E+01   0.250000E+01
    37     1    60  -0.100000E+03  -0.201049E+02   0.351440E+01   0.350000E+01
 
 UBDSV4 SAVING "          DRAINS" ON UNIT  40 AT TIME STEP  7, STRESS PERIOD   3
 UBDSV4 SAVING " HEAD DEP BOUNDS" ON UNIT  40 AT TIME STEP  7, STRESS PERIOD   3

 SAVING SATURATED THICKNESS AND FLOW TERMS ON UNIT  333 FOR MT3DMS
 BY THE LINK-MT3DMS PACKAGE V7 AT TIME STEP    7, STRESS PERIOD    3


 HEAD WILL BE SAVED ON UNIT    2 AT END OF TIME STEP    7, STRESS PERIOD    3

 DRAWDOWN WILL BE SAVED ON UNIT   14 AT END OF TIME STEP    7, STRESS PERIOD    3
1
  VOLUMETRIC BUDGET FOR ENTIRE MODEL AT END OF TIME STEP    7, STRESS PERIOD   3
  ------------------------------------------------------------------------------

     CUMULATIVE VOLUMES      L**3       RATES FOR THIS TIME STEP      L**3/T
     ------------------                 ------------------------

           IN:                                      IN:
           ---                                      ---
             STORAGE     =         124.5310               STORAGE     =       1.5399E-09
       CONSTANT HEAD     =           0.0000         CONSTANT HEAD     =           0.0000
               WELLS     =           0.0000                 WELLS     =           0.0000
              DRAINS     =           0.0000                DRAINS     =           0.0000
     HEAD DEP BOUNDS     =        2457.3967       HEAD DEP BOUNDS     =         117.7771

                TOTAL IN =        2581.9277                  TOTAL IN =         117.7771

          OUT:                                     OUT:
          ----                                     ----
             STORAGE     =          58.3684               STORAGE     =       9.2289E-02
       CONSTANT HEAD     =           0.0000         CONSTANT HEAD     =           0.0000
               WELLS     =        2493.0173                 WELLS     =         116.8582
              DRAINS     =          30.5468                DRAINS     =           0.8247
     HEAD DEP BOUNDS     =           0.0000       HEAD DEP BOUNDS     =           0.0000

               TOTAL OUT =        2581.9326                 TOTAL OUT =         117.7752

                IN - OUT =      -4.8828E-03                  IN - OUT =       1.9226E-03

     PERCENT DISCREPANCY =          -0.00         PERCENT DISCREPANCY =           0.00






         TIME SUMMARY AT END OF TIME STEP    7 IN STRESS PERIOD    3
                    SECONDS     MINUTES      HOURS       DAYS        YEARS
                    -----------------------------------------------------------
   TIME STEP LENGTH  86400.      1440.0      24.000      1.0000     2.73785E-03
 STRESS PERIOD TIME 6.04800E+05  10080.      168.00      7.0000     1.91650E-02
         TOTAL TIME 2.33280E+06  38880.      648.00      27.000     7.39220E-02
1
 
 SOLVING FOR HEAD 
                                                   Max.-Head-Change                         Max.-Flux-Residual
  Residual-Control   Outer-Iter.   Inner-Iter.     Column Row Layer    Maximum-Head-Change  Column Row Layer    Maximum-Flux-Residual          L2-NORM 
          0                 1           5            88    1    37       0.1626508598E-01      77    1   37         0.2110946813E-02      0.1117248116E-01
          0                 2           1            76    1    38       0.2732044649E-03      76    1   38         0.2898668991E-02      0.3726798115E-02
          0                 3           1            72    1    40       0.1823898230E-03      73    1   39         0.1764508548E-03      0.7020554156E-03
          0                 4           1            56    1    19       0.7494944576E-04      75    1   39         0.9319297389E-04      0.5742298697E-03
          0                 5           1            56    1    30       0.9316800915E-04      73    1   39         0.8324579361E-04      0.5097025741E-03
          0                 6           1            56    1    19       0.7515151101E-04      75    1   39         0.6478634508E-04      0.4603747203E-03
          0                 7           1            56    1    30       0.7267444906E-04      73    1   39         0.5610410360E-04      0.4208522897E-03
          0                 8           1            56    1    18       0.7274055153E-04      75    1   39         0.4564692183E-04      0.3852840919E-03
          0                 9           1            56    1    30       0.5580240909E-04      73    1   39         0.4185086810E-04      0.3538760669E-03
          0                10           1            56    1    18       0.6992849700E-04      75    1   39         0.3306773219E-04      0.3248201721E-03
                                                   Max.-Head-Change                         Max.-Flux-Residual
  Residual-Control   Outer-Iter.   Inner-Iter.     Column Row Layer    Maximum-Head-Change  Column Row Layer    Maximum-Flux-Residual          L2-NORM 
          0                11           1            56    1    30       0.4307814763E-04      73    1   39         0.3255327461E-04      0.2980629382E-03
          0                12           1            56    1    18       0.6708642991E-04      75    1   39         0.2412447294E-04      0.2732655076E-03
          0                13           1            56    1    30       0.3335246159E-04      73    1   39         0.2568027354E-04      0.2498077347E-03
          0                14           1            56    1    18       0.6426866058E-04      46    1   26         0.1997968447E-04      0.2281666647E-03
          0                15           1            56    1    30       0.2575583948E-04      71    1   39         0.2320335278E-04      0.2072766429E-03
          0                16           1            56    1    18       0.6138133076E-04      46    1   26         0.1661371165E-04      0.1881321508E-03
          0                17           1            56    1    30       0.1970970757E-04      71    1   39         0.2075277213E-04      0.1693622710E-03
          0                18           1            56    1    18       0.5846885471E-04      46    1   26         0.1354500930E-04      0.1522805727E-03
          0                19           1            56    1    30       0.1496029068E-04      74    1   38        -0.2012327396E-04      0.1361554041E-03
          0                20           1            56    1    18       0.5311418920E-04      46    1   26         0.1072704514E-04      0.1199996075E-03
                                                   Max.-Head-Change                         Max.-Flux-Residual
  Residual-Control   Outer-Iter.   Inner-Iter.     Column Row Layer    Maximum-Head-Change  Column Row Layer    Maximum-Flux-Residual          L2-NORM 
          0                21           1            56    1    30       0.1147305570E-04      71    1   39         0.1580044178E-04      0.1048289906E-03

    ------------------------------------------------
       NWT REQUIRED           21 OUTER ITERATIONS 
       AND A TOTAL OF         25 INNER ITERATIONS.
    ------------------------------------------------

 OUTPUT CONTROL FOR STRESS PERIOD    3   TIME STEP    8
    PRINT BUDGET
    SAVE HEAD FOR ALL LAYERS
    SAVE DRAWDOWN FOR ALL LAYERS
    SAVE BUDGET
 UBDSV1 SAVING "         STORAGE" ON UNIT  40 AT TIME STEP  8, STRESS PERIOD   3
 UBDSV2 SAVING "   CONSTANT HEAD" ON UNIT  40 AT TIME STEP  8, STRESS PERIOD   3
 UBDSV1 SAVING "FLOW RIGHT FACE " ON UNIT  40 AT TIME STEP  8, STRESS PERIOD   3
 UBDSV1 SAVING "FLOW LOWER FACE " ON UNIT  40 AT TIME STEP  8, STRESS PERIOD   3
 UBDSV4 SAVING "           WELLS" ON UNIT  40 AT TIME STEP  8, STRESS PERIOD   3
 
 WELLS WITH REDUCED PUMPING FOR STRESS PERIOD     3 TIME STEP     8
   LAY   ROW   COL         APPL.Q          ACT.Q        GW-HEAD       CELL-BOT
    37     1    21  -0.100000E+03  -0.967562E+02   0.263381E+01   0.250000E+01
    37     1    60  -0.100000E+03  -0.201291E+02   0.351441E+01   0.350000E+01
 
 UBDSV4 SAVING "          DRAINS" ON UNIT  40 AT TIME STEP  8, STRESS PERIOD   3
 UBDSV4 SAVING " HEAD DEP BOUNDS" ON UNIT  40 AT TIME STEP  8, STRESS PERIOD   3

 SAVING SATURATED THICKNESS AND FLOW TERMS ON UNIT  333 FOR MT3DMS
 BY THE LINK-MT3DMS PACKAGE V7 AT TIME STEP    8, STRESS PERIOD    3


 HEAD WILL BE SAVED ON UNIT    2 AT END OF TIME STEP    8, STRESS PERIOD    3

 DRAWDOWN WILL BE SAVED ON UNIT   14 AT END OF TIME STEP    8, STRESS PERIOD    3
1
  VOLUMETRIC BUDGET FOR ENTIRE MODEL AT END OF TIME STEP    8, STRESS PERIOD   3
  ------------------------------------------------------------------------------

     CUMULATIVE VOLUMES      L**3       RATES FOR THIS TIME STEP      L**3/T
     ------------------                 ------------------------

           IN:                                      IN:
           ---                                      ---
             STORAGE     =         124.5310               STORAGE     =       1.8022E-09
       CONSTANT HEAD     =           0.0000         CONSTANT HEAD     =           0.0000
               WELLS     =           0.0000                 WELLS     =           0.0000
              DRAINS     =           0.0000                DRAINS     =           0.0000
     HEAD DEP BOUNDS     =        2575.1702       HEAD DEP BOUNDS     =         117.7735

                TOTAL IN =        2699.7012                  TOTAL IN =         117.7735

          OUT:                                     OUT:
          ----                                     ----
             STORAGE     =          58.4152               STORAGE     =       4.6831E-02
       CONSTANT HEAD     =           0.0000         CONSTANT HEAD     =           0.0000
               WELLS     =        2609.9026                 WELLS     =         116.8853
              DRAINS     =          31.3863                DRAINS     =           0.8394
     HEAD DEP BOUNDS     =           0.0000       HEAD DEP BOUNDS     =           0.0000

               TOTAL OUT =        2699.7041                 TOTAL OUT =         117.7716

                IN - OUT =      -2.9297E-03                  IN - OUT =       1.9073E-03

     PERCENT DISCREPANCY =          -0.00         PERCENT DISCREPANCY =           0.00






         TIME SUMMARY AT END OF TIME STEP    8 IN STRESS PERIOD    3
                    SECONDS     MINUTES      HOURS       DAYS        YEARS
                    -----------------------------------------------------------
   TIME STEP LENGTH  86400.      1440.0      24.000      1.0000     2.73785E-03
 STRESS PERIOD TIME 6.91200E+05  11520.      192.00      8.0000     2.19028E-02
         TOTAL TIME 2.41920E+06  40320.      672.00      28.000     7.66598E-02
1
 
 SOLVING FOR HEAD 
                                                   Max.-Head-Change                         Max.-Flux-Residual
  Residual-Control   Outer-Iter.   Inner-Iter.     Column Row Layer    Maximum-Head-Change  Column Row Layer    Maximum-Flux-Residual          L2-NORM 
          0                 1           5            88    1    37       0.9808984808E-02      77    1   37         0.1283017734E-02      0.6410152965E-02
          0                 2           1            69    1    39       0.6343968661E-04      97    1   39        -0.6519070478E-04      0.3901210770E-03
          0                 3           1            69    1    35       0.4976267130E-04      69    1   39         0.3478078695E-04      0.2586238205E-03
          0                 4           1            56    1    18       0.3679966810E-04      73    1   39         0.2449047123E-04      0.2191391353E-03
          0                 5           1            56    1    30       0.3418069743E-04      37    1   21         0.2196452070E-04      0.1918885543E-03
          0                 6           1            56    1    18       0.3426489079E-04      35    1   23         0.1641956374E-04      0.1743843174E-03
          0                 7           1            56    1    30       0.2655839566E-04      37    1   21         0.1952283938E-04      0.1575203812E-03
          0                 8           1            56    1    18       0.3187987624E-04      35    1   23         0.1354214001E-04      0.1448941426E-03
          0                 9           1            56    1    30       0.2053715125E-04      37    1   21         0.1739639845E-04      0.1315390753E-03
          0                10           1            56    1    18       0.3028407600E-04      35    1   23         0.1104989320E-04      0.1211137073E-03
                                                   Max.-Head-Change                         Max.-Flux-Residual
  Residual-Control   Outer-Iter.   Inner-Iter.     Column Row Layer    Maximum-Head-Change  Column Row Layer    Maximum-Flux-Residual          L2-NORM 
          0                11           1            56    1    30       0.1576956943E-04      37    1   21         0.1538675872E-04      0.1096506035E-03
          0                12           1            56    1    18       0.2947597886E-04      35    1   23         0.8853477823E-05      0.1005557900E-03

    ------------------------------------------------
       NWT REQUIRED           12 OUTER ITERATIONS 
       AND A TOTAL OF         16 INNER ITERATIONS.
    ------------------------------------------------

 OUTPUT CONTROL FOR STRESS PERIOD    3   TIME STEP    9
    PRINT BUDGET
    SAVE HEAD FOR ALL LAYERS
    SAVE DRAWDOWN FOR ALL LAYERS
    SAVE BUDGET
 UBDSV1 SAVING "         STORAGE" ON UNIT  40 AT TIME STEP  9, STRESS PERIOD   3
 UBDSV2 SAVING "   CONSTANT HEAD" ON UNIT  40 AT TIME STEP  9, STRESS PERIOD   3
 UBDSV1 SAVING "FLOW RIGHT FACE " ON UNIT  40 AT TIME STEP  9, STRESS PERIOD   3
 UBDSV1 SAVING "FLOW LOWER FACE " ON UNIT  40 AT TIME STEP  9, STRESS PERIOD   3
 UBDSV4 SAVING "           WELLS" ON UNIT  40 AT TIME STEP  9, STRESS PERIOD   3
 
 WELLS WITH REDUCED PUMPING FOR STRESS PERIOD     3 TIME STEP     9
   LAY   ROW   COL         APPL.Q          ACT.Q        GW-HEAD       CELL-BOT
    37     1    21  -0.100000E+03  -0.967572E+02   0.263381E+01   0.250000E+01
    37     1    60  -0.100000E+03  -0.201399E+02   0.351441E+01   0.350000E+01
 
 UBDSV4 SAVING "          DRAINS" ON UNIT  40 AT TIME STEP  9, STRESS PERIOD   3
 UBDSV4 SAVING " HEAD DEP BOUNDS" ON UNIT  40 AT TIME STEP  9, STRESS PERIOD   3

 SAVING SATURATED THICKNESS AND FLOW TERMS ON UNIT  333 FOR MT3DMS
 BY THE LINK-MT3DMS PACKAGE V7 AT TIME STEP    9, STRESS PERIOD    3


 HEAD WILL BE SAVED ON UNIT    2 AT END OF TIME STEP    9, STRESS PERIOD    3

 DRAWDOWN WILL BE SAVED ON UNIT   14 AT END OF TIME STEP    9, STRESS PERIOD    3
1
  VOLUMETRIC BUDGET FOR ENTIRE MODEL AT END OF TIME STEP    9, STRESS PERIOD   3
  ------------------------------------------------------------------------------

     CUMULATIVE VOLUMES      L**3       RATES FOR THIS TIME STEP      L**3/T
     ------------------                 ------------------------

           IN:                                      IN:
           ---                                      ---
             STORAGE     =         124.5310               STORAGE     =       1.7962E-09
       CONSTANT HEAD     =           0.0000         CONSTANT HEAD     =           0.0000
               WELLS     =           0.0000                 WELLS     =           0.0000
              DRAINS     =           0.0000                DRAINS     =           0.0000
     HEAD DEP BOUNDS     =        2692.9424       HEAD DEP BOUNDS     =         117.7723

                TOTAL IN =        2817.4734                  TOTAL IN =         117.7723

          OUT:                                     OUT:
          ----                                     ----
             STORAGE     =          58.4403               STORAGE     =       2.5024E-02
       CONSTANT HEAD     =           0.0000         CONSTANT HEAD     =           0.0000
               WELLS     =        2726.7998                 WELLS     =         116.8971
              DRAINS     =          32.2346                DRAINS     =           0.8484
     HEAD DEP BOUNDS     =           0.0000       HEAD DEP BOUNDS     =           0.0000

               TOTAL OUT =        2817.4746                 TOTAL OUT =         117.7705

                IN - OUT =      -1.2207E-03                  IN - OUT =       1.7929E-03

     PERCENT DISCREPANCY =          -0.00         PERCENT DISCREPANCY =           0.00






         TIME SUMMARY AT END OF TIME STEP    9 IN STRESS PERIOD    3
                    SECONDS     MINUTES      HOURS       DAYS        YEARS
                    -----------------------------------------------------------
   TIME STEP LENGTH  86400.      1440.0      24.000      1.0000     2.73785E-03
 STRESS PERIOD TIME 7.77600E+05  12960.      216.00      9.0000     2.46407E-02
         TOTAL TIME 2.50560E+06  41760.      696.00      29.000     7.93977E-02
1
 
 SOLVING FOR HEAD 
                                                   Max.-Head-Change                         Max.-Flux-Residual
  Residual-Control   Outer-Iter.   Inner-Iter.     Column Row Layer    Maximum-Head-Change  Column Row Layer    Maximum-Flux-Residual          L2-NORM 
          0                 1           4            88    1    37       0.5840641741E-02      83    1   37         0.7550859369E-03      0.3736883177E-02
          0                 2           1            70    1    26       0.1267433620E-03      69    1   36        -0.1584361910E-03      0.4458094528E-03
          0                 3           1            69    1    35       0.9632899767E-04      73    1   39         0.6315329635E-04      0.2590698813E-03
          0                 4           1            70    1    26       0.5716719982E-04      74    1   38         0.3589097431E-04      0.1865085744E-03
          0                 5           1            69    1    35       0.4244808777E-04      69    1   39         0.3003752370E-04      0.1464589764E-03
          0                 6           1            70    1    26       0.2892624980E-04      78    1   38         0.1982160497E-04      0.1211264905E-03
          0                 7           1            69    1    35       0.2185946453E-04      75    1   39         0.1811892910E-04      0.1044781700E-03

    ------------------------------------------------
       NWT REQUIRED            7 OUTER ITERATIONS 
       AND A TOTAL OF         10 INNER ITERATIONS.
    ------------------------------------------------

 OUTPUT CONTROL FOR STRESS PERIOD    3   TIME STEP   10
    PRINT BUDGET
    SAVE HEAD FOR ALL LAYERS
    SAVE DRAWDOWN FOR ALL LAYERS
    SAVE BUDGET
 UBDSV1 SAVING "         STORAGE" ON UNIT  40 AT TIME STEP 10, STRESS PERIOD   3
 UBDSV2 SAVING "   CONSTANT HEAD" ON UNIT  40 AT TIME STEP 10, STRESS PERIOD   3
 UBDSV1 SAVING "FLOW RIGHT FACE " ON UNIT  40 AT TIME STEP 10, STRESS PERIOD   3
 UBDSV1 SAVING "FLOW LOWER FACE " ON UNIT  40 AT TIME STEP 10, STRESS PERIOD   3
 UBDSV4 SAVING "           WELLS" ON UNIT  40 AT TIME STEP 10, STRESS PERIOD   3
 
 WELLS WITH REDUCED PUMPING FOR STRESS PERIOD     3 TIME STEP    10
   LAY   ROW   COL         APPL.Q          ACT.Q        GW-HEAD       CELL-BOT
    37     1    21  -0.100000E+03  -0.967576E+02   0.263381E+01   0.250000E+01
    37     1    60  -0.100000E+03  -0.201450E+02   0.351442E+01   0.350000E+01
 
 UBDSV4 SAVING "          DRAINS" ON UNIT  40 AT TIME STEP 10, STRESS PERIOD   3
 UBDSV4 SAVING " HEAD DEP BOUNDS" ON UNIT  40 AT TIME STEP 10, STRESS PERIOD   3

 SAVING SATURATED THICKNESS AND FLOW TERMS ON UNIT  333 FOR MT3DMS
 BY THE LINK-MT3DMS PACKAGE V7 AT TIME STEP   10, STRESS PERIOD    3


 HEAD WILL BE SAVED ON UNIT    2 AT END OF TIME STEP   10, STRESS PERIOD    3

 DRAWDOWN WILL BE SAVED ON UNIT   14 AT END OF TIME STEP   10, STRESS PERIOD    3
1
  VOLUMETRIC BUDGET FOR ENTIRE MODEL AT END OF TIME STEP   10, STRESS PERIOD   3
  ------------------------------------------------------------------------------

     CUMULATIVE VOLUMES      L**3       RATES FOR THIS TIME STEP      L**3/T
     ------------------                 ------------------------

           IN:                                      IN:
           ---                                      ---
             STORAGE     =         124.5310               STORAGE     =       1.7940E-09
       CONSTANT HEAD     =           0.0000         CONSTANT HEAD     =           0.0000
               WELLS     =           0.0000                 WELLS     =           0.0000
              DRAINS     =           0.0000                DRAINS     =           0.0000
     HEAD DEP BOUNDS     =        2810.7144       HEAD DEP BOUNDS     =         117.7719

                TOTAL IN =        2935.2454                  TOTAL IN =         117.7719

          OUT:                                     OUT:
          ----                                     ----
             STORAGE     =          58.4540               STORAGE     =       1.3758E-02
       CONSTANT HEAD     =           0.0000         CONSTANT HEAD     =           0.0000
               WELLS     =        2843.7024                 WELLS     =         116.9026
              DRAINS     =          33.0883                DRAINS     =           0.8537
     HEAD DEP BOUNDS     =           0.0000       HEAD DEP BOUNDS     =           0.0000

               TOTAL OUT =        2935.2449                 TOTAL OUT =         117.7700

                IN - OUT =       4.8828E-04                  IN - OUT =       1.8234E-03

     PERCENT DISCREPANCY =           0.00         PERCENT DISCREPANCY =           0.00






         TIME SUMMARY AT END OF TIME STEP   10 IN STRESS PERIOD    3
                    SECONDS     MINUTES      HOURS       DAYS        YEARS
                    -----------------------------------------------------------
   TIME STEP LENGTH  86400.      1440.0      24.000      1.0000     2.73785E-03
 STRESS PERIOD TIME 8.64000E+05  14400.      240.00      10.000     2.73785E-02
         TOTAL TIME 2.59200E+06  43200.      720.00      30.000     8.21355E-02
1

 Run end date and time (yyyy/mm/dd hh:mm:ss): 2023/05/24 22:56:16
 Elapsed run time:  1.204 Seconds

